  52
# Step 268, RM=Cl[65] (1 atoms), C8H15N2[389] (25 atoms), C8H15N2[460] (25 atoms), Cl[319] (1 atoms)
  Cl   0.00000   0.00000  -0.00000
  C   3.61750   5.49470   0.64330
  C   1.48850   4.38180   0.00150
  C   4.48150   4.90620   1.78520
  C   1.35410   5.54090   1.86610
  C   0.08850   5.17210   1.47070
  C   4.67880   3.38280   1.71540
  C  -0.80650   3.54280  -0.21260
  C   5.66150   2.81250   2.75990
  H   1.96920   3.85010  -0.80630
  H   3.97620   5.20410  -0.34410
  H   3.80970   6.56750   0.63230
  H   1.68900   6.16500   2.68140
  H  -0.88900   5.33700   1.89930
  H   4.02720   5.21520   2.72660
  H   5.49630   5.30210   1.82370
  H   5.04500   3.00970   0.75900
  H   3.76200   2.86340   1.99460
  H  -0.28470   2.66720  -0.59890
  H  -1.62300   3.22900   0.43780
  H  -1.37160   4.12420  -0.94110
  H   5.96820   1.79270   2.52700
  H   6.62720   3.31090   2.67490
  H   5.37150   2.78230   3.81020
  N   2.15050   5.20000   0.82220
  N   0.25300   4.31280   0.40940
  C  -1.39990   1.59940   3.25670
  C  -0.03530   0.55450   5.02330
  C  -2.08680   2.60270   4.20590
  C   1.09820   0.75210   3.21490
  C   1.89120   0.28380   4.16530
  C  -1.17670   3.76740   4.69800
  C   1.68200  -0.25730   6.67370
  C  -1.97520   4.85430   5.24450
  H  -0.75570   0.55460   5.82790
  H  -2.09480   0.81220   2.96440
  H  -1.12070   2.16000   2.36460
  H   1.34550   0.95240   2.18290
  H   2.93920   0.04100   4.06970
  H  -2.59030   2.00280   4.96400
  H  -2.88250   3.10110   3.65220
  H  -0.49130   3.45770   5.48690
  H  -0.63460   4.16390   3.83960
  H   2.59950  -0.81510   6.48630
  H   1.08260  -0.78140   7.41820
  H   2.05000   0.55640   7.29870
  H  -3.06280   4.82840   5.17750
  H  -1.72590   5.76840   4.70560
  H  -1.80190   4.95870   6.31560
  N  -0.11730   0.97900   3.78860
  N   1.12360   0.15580   5.33750
  Cl  -3.86540   4.70800   0.87280
