  52
# Step 47, RM=Cl[232] (1 atoms), C8H15N2[45] (25 atoms), C8H15N2[202] (25 atoms), Cl[278] (1 atoms)
  Cl   0.00000   0.00000   0.00000
  C  -2.11990  -2.41140   1.63560
  C   0.00300  -1.88640   2.75940
  C  -3.46500  -2.69760   2.20700
  C  -0.76430  -3.88330   3.20940
  C   0.35950  -3.76980   3.94030
  C  -4.67920  -2.17380   1.41390
  C   2.11360  -1.99350   4.05380
  C  -5.67520  -3.27440   1.16820
  H   0.23800  -0.92190   2.33390
  H  -1.98160  -1.37740   1.31960
  H  -2.04220  -3.08390   0.78130
  H  -1.47210  -4.69900   3.20650
  H   0.92040  -4.52560   4.47010
  H  -3.45970  -2.44650   3.26760
  H  -3.64460  -3.77250   2.18250
  H  -4.46790  -1.67110   0.47020
  H  -5.22340  -1.38640   1.93550
  H   2.82870  -2.79910   4.22040
  H   2.53880  -1.48120   3.19080
  H   1.99240  -1.38390   4.94930
  H  -5.42150  -3.93520   0.33920
  H  -5.91810  -3.82300   2.07820
  H  -6.69200  -2.95750   0.93600
  N  -0.99600  -2.73090   2.50780
  N   0.77260  -2.48570   3.65100
  C  -0.36250   6.95710  -2.04580
  C  -0.24800   4.52570  -2.10540
  C  -0.75550   8.10200  -2.93940
  C  -0.41600   5.35360  -4.10700
  C  -0.34120   4.00260  -4.19810
  C  -0.98580   9.32110  -2.06470
  C  -0.34860   2.09990  -2.50580
  C  -0.83150  10.54360  -2.89720
  H   0.05830   4.52040  -1.06970
  H  -1.08080   6.81310  -1.23860
  H   0.63510   7.13700  -1.64530
  H  -0.40470   6.05290  -4.92990
  H  -0.32970   3.41630  -5.10500
  H  -1.57970   7.82510  -3.59680
  H   0.15880   8.33030  -3.48720
  H  -0.22800   9.30240  -1.28140
  H  -1.96480   9.27240  -1.58800
  H   0.58680   1.62040  -2.79410
  H  -1.12980   1.55230  -3.03300
  H  -0.50280   1.89700  -1.44600
  H  -1.57730  10.66760  -3.68230
  H   0.13100  10.76940  -3.35620
  H  -1.02980  11.26950  -2.10870
  N  -0.36860   5.66050  -2.72050
  N  -0.23310   3.51670  -2.90270
  Cl   0.89180   5.50640   1.04770
