  60
# Step 298, RM=C2N3[378] (5 atoms), C8H15N2[62] (25 atoms), C8H15N2[473] (25 atoms), C2N3[495] (5 atoms)
  C  -0.59666  -0.22121  -0.92637
  C   0.50334   0.17879   0.98363
  N  -0.57666  -0.22121   0.38363
  N  -0.72666  -0.32121  -2.08637
  N   1.38334   0.57879   1.65363
  C   4.52334   1.37879   1.42726
  C   3.79334   0.67879   3.66726
  C   5.72334   2.17879   0.84726
  C   5.88334   0.27879   3.24726
  C   5.63334  -0.12121   4.50726
  C   6.14334   3.37879   1.74726
  C   3.60334  -0.22121   5.97726
  C   7.28334   4.17879   1.10726
  H   2.76334   0.87879   3.53726
  H   4.24334   0.67879   0.71726
  H   3.64334   2.07879   1.45726
  H   6.80334   0.27879   2.67726
  H   6.28334  -0.62121   5.23726
  H   5.45334   2.57879  -0.13274
  H   6.55334   1.47879   0.68726
  H   5.27334   3.97879   1.90726
  H   6.43334   2.97879   2.72726
  H   2.62334   0.17879   6.03726
  H   4.12334   0.07879   6.85726
  H   3.46334  -1.32121   6.08726
  H   7.54334   5.07879   1.70726
  H   7.01334   4.57879   0.11726
  H   8.19334   3.57879   0.94726
  N   4.71334   0.77879   2.74726
  N   4.29334   0.07879   4.74726
  C   0.23334   4.17879  -0.61274
  C  -0.41666   2.77879  -2.55274
  C  -0.65666   4.57879   0.55726
  C  -1.44666   4.67879  -2.50274
  C  -1.93666   3.97879  -3.53274
  C  -1.41666   3.37879   1.18726
  C  -1.58666   1.67879  -4.49274
  C  -2.64666   2.97879   0.40726
  H   0.24334   1.87879  -2.30274
  H   0.96334   4.97879  -0.80274
  H   0.85334   3.27879  -0.32274
  H  -1.66666   5.67879  -2.17274
  H  -2.70666   4.27879  -4.23274
  H  -1.35666   5.37879   0.30726
  H  -0.00666   4.97879   1.32726
  H  -1.77666   3.77879   2.16726
  H  -0.71666   2.57879   1.38726
  H  -0.92666   0.77879  -4.34274
  H  -2.60666   1.27879  -4.34274
  H  -1.47666   1.97879  -5.53274
  H  -3.22666   2.17879   0.97726
  H  -3.28666   3.77879   0.14726
  H  -2.32666   2.47879  -0.52274
  N  -0.48666   3.87879  -1.88274
  N  -1.28666   2.77879  -3.55274
  C   3.04334   2.77879  -1.62637
  C   4.18334   4.67879  -1.75637
  N   3.45334   3.87879  -1.06637
  N   2.57334   1.77879  -2.05637
  N   4.73334   5.47879  -2.34637
