  60
# Step 337, RM=C2N3[358] (5 atoms), C8H15N2[188] (25 atoms), C8H15N2[306] (25 atoms), C2N3[426] (5 atoms)
  C   0.35272  -0.61819  -0.84758
  C  -0.18728   0.68181   0.86242
  N   0.70272   0.28181  -0.00758
  N   0.12272  -1.51819  -1.58758
  N  -0.96728   1.18181   1.58242
  C  -1.17728   3.88544   0.16242
  C  -3.41728   4.78544  -0.56758
  C  -0.48728   5.08544  -0.46758
  C  -3.46728   2.88544   0.65242
  C  -4.72728   3.28544   0.34242
  C   1.04272   5.08544  -0.34758
  C  -5.83728   5.08544  -1.00758
  C   1.69272   3.88544  -1.09758
  H  -3.09728   5.58544  -1.13758
  H  -0.91728   3.78544   1.21242
  H  -0.80728   2.98544  -0.33758
  H  -3.06728   2.08544   1.22242
  H  -5.66728   2.78544   0.59242
  H  -0.75728   5.18544  -1.51758
  H  -0.85728   5.98544   0.01242
  H   1.30272   4.98544   0.71242
  H   1.44272   5.98544  -0.72758
  H  -6.18728   5.88544  -0.34758
  H  -5.58728   5.58544  -1.93758
  H  -6.64728   4.38544  -1.21758
  H   1.38272   2.88544  -0.68758
  H   1.49272   3.88544  -2.16758
  H   2.78272   3.98544  -0.99758
  N  -2.64728   3.88544   0.06242
  N  -4.68728   4.38544  -0.41758
  C   1.35272   1.38181  -5.16758
  C   3.59272   1.78181  -4.11758
  C  -0.04728   0.88181  -4.80758
  C   2.51272   0.08181  -3.31758
  C   3.68272   0.08181  -2.67758
  C  -0.65728   1.48181  -3.55758
  C   5.72272   1.58181  -2.85758
  C  -1.21728   2.88181  -3.76758
  H   3.87272   2.68181  -4.67758
  H   1.28272   2.48181  -5.26758
  H   1.61272   1.08181  -6.15758
  H   1.70272  -0.61819  -3.18758
  H   4.07272  -0.51819  -1.88758
  H  -0.69728   1.08181  -5.65758
  H  -0.00728  -0.21819  -4.67758
  H  -1.46728   0.88181  -3.18758
  H   0.04272   1.58181  -2.72758
  H   6.27272   0.78181  -2.39758
  H   5.73272   2.38181  -2.14758
  H   6.26272   1.98181  -3.73758
  H  -1.70728   3.28181  -2.87758
  H  -0.41728   3.58181  -4.04758
  H  -1.95728   2.88181  -4.56758
  N   2.45272   1.08181  -4.22758
  N   4.36272   1.18181  -3.21758
  C   0.92272   8.08181   3.56242
  C   0.00272   5.98181   3.70242
  N   0.51272   7.08181   4.30242
  N   1.32272   8.98181   3.04242
  N  -0.47728   5.08181   3.27242
