  52
# Step 975, RM=Cl[464] (1 atoms), C8H15N2[3] (25 atoms), C8H15N2[225] (25 atoms), Cl[492] (1 atoms)
  Cl   0.00000   0.00000   0.00000
  C   1.91070   0.48978  -6.66280
  C   1.75270   1.65594  -4.41260
  C   1.79120   1.74556  -7.51750
  C   1.49560  -0.48438  -4.37980
  C   1.35550  -0.02033  -3.11420
  C   0.36740   2.38875  -7.49140
  C   1.83270   2.28991  -2.05510
  C   0.29550   3.51867  -8.44750
  H   1.93990   2.66524  -4.74820
  H   1.20830  -0.28118  -6.97970
  H   2.88410   0.03865  -6.85540
  H   1.36410  -1.49937  -4.72470
  H   1.18850  -0.54020  -2.18240
  H   2.04900   1.49191  -8.54580
  H   2.52080   2.49243  -7.20460
  H   0.09450   2.60804  -6.45910
  H  -0.44810   1.73126  -7.79260
  H   1.01910   2.11413  -1.35140
  H   1.84370   3.34823  -2.31580
  H   2.79070   2.04592  -1.59590
  H   0.71990   3.36876  -9.44020
  H  -0.77030   3.74683  -8.45490
  H   0.81590   4.41277  -8.10420
  N   1.76390   0.60157  -5.18490
  N   1.64950   1.37718  -3.14620
  C   0.85890  -3.21993   3.14680
  C  -0.93180  -2.78819   4.77010
  C   1.00900  -3.09626   1.64720
  C  -0.55180  -1.18978   3.34630
  C  -1.65080  -0.81383   4.11370
  C  -0.19190  -3.52296   0.72790
  C  -2.94860  -1.72623   6.00360
  C   0.39520  -3.67767  -0.68300
  H  -0.86000  -3.71572   5.31870
  H   0.76810  -4.28979   3.33460
  H   1.80990  -3.02787   3.64360
  H  -0.22710  -0.66126   2.46220
  H  -2.25230   0.08253   4.08080
  H   1.47020  -2.16743   1.31150
  H   1.86360  -3.75333   1.48550
  H  -0.74480  -4.36592   1.14230
  H  -0.92770  -2.71952   0.69470
  H  -3.86060  -2.08384   5.52560
  H  -2.75110  -2.26659   6.92940
  H  -3.14390  -0.73965   6.42380
  H  -0.45670  -4.03802  -1.25960
  H   0.76940  -2.75764  -1.13200
  H   1.24200  -4.35742  -0.77820
  N  -0.20270  -2.41534   3.75260
  N  -1.86040  -1.83369   5.01440
  Cl   1.46730   5.34136   0.17380
