  60
# Step 57, RM=C2N3[129] (5 atoms), C8H15N2[311] (25 atoms), C8H15N2[439] (25 atoms), C2N3[284] (5 atoms)
  C  -0.86188  -0.68243   0.02438
  C   0.89852   0.64637   0.14813
  N   0.20372  -0.36003   0.60032
  N  -1.88648  -1.02663  -0.41584
  N   1.65132   1.41757  -0.33241
  C   3.67822   5.86125   3.62433
  C   2.65552   8.06225   4.23263
  C   3.21132   4.75524   2.81011
  C   2.74142   7.71600   2.09646
  C   2.18202   8.92416   2.34016
  C   1.74042   4.55467   2.98476
  C   1.64862  10.39587   4.29563
  C   1.17112   3.36954   2.19267
  H   2.84642   7.99511   5.29353
  H   4.76602   5.93024   3.61803
  H   3.44752   5.57463   4.65033
  H   2.79762   7.18250   1.15912
  H   1.82062   9.65731   1.63424
  H   3.60002   3.84587   3.26843
  H   3.48462   4.86839   1.76103
  H   1.17682   5.47760   2.84799
  H   1.58442   4.42023   4.05513
  H   0.58382  10.38803   4.06263
  H   1.73142  10.44090   5.38153
  H   1.90592  11.32214   3.78183
  H   0.08652   3.45747   2.25539
  H   1.57712   2.38888   2.44087
  H   1.41092   3.37333   1.12938
  N   3.10582   7.20886   3.31893
  N   2.24242   9.18555   3.67333
  C  -7.05258  -3.63283  -4.90973
  C  -5.48148  -3.06603  -3.07276
  C  -7.72118  -4.93923  -5.43697
  C  -7.28088  -4.04463  -2.39793
  C  -6.55038  -3.63693  -1.34605
  C  -6.97468  -6.15573  -5.01635
  C  -4.36268  -2.47133  -0.92674
  C  -7.70898  -7.41013  -5.57103
  H  -4.77488  -2.49163  -3.65343
  H  -6.18138  -3.38233  -5.51500
  H  -7.78088  -2.83053  -5.02770
  H  -8.14538  -4.68553  -2.49037
  H  -6.70508  -3.67043  -0.27771
  H  -7.93798  -4.84133  -6.50070
  H  -8.74498  -5.08083  -5.09057
  H  -5.93838  -6.06083  -5.34083
  H  -6.92218  -6.13613  -3.92780
  H  -3.40018  -2.91183  -1.18670
  H  -4.38808  -2.63693   0.15030
  H  -4.15098  -1.41433  -1.08852
  H  -8.73708  -7.50743  -5.22231
  H  -7.07648  -8.27113  -5.35497
  H  -7.80668  -7.54983  -6.64761
  N  -6.60188  -3.60113  -3.49691
  N  -5.42028  -3.00783  -1.77775
  C  -0.93758  -7.57743  -0.52466
  C  -2.55448  -6.08953  -0.12099
  N  -2.11138  -7.30963  -0.01125
  N   0.07002  -7.97443  -0.95420
  N  -3.06728  -5.00253  -0.11081
