  60
# Step 11736, RM=C2N3[386] (5 atoms), C8H15N2[5] (25 atoms), C8H15N2[500] (25 atoms), C2N3[387] (5 atoms)
  C   0.45486   0.11107   1.02709
  C  -0.47804  -0.00683  -1.08571
  N  -0.18604   0.61627   0.01579
  N   1.06296  -0.13183   2.00799
  N  -0.85704  -0.57383  -1.97351
  C  -0.10264   1.10220   7.61239
  C  -0.27814   1.71981   5.24469
  C  -1.13444   1.75535   8.63969
  C   0.96146   3.11455   6.32419
  C   1.06996   3.46084   5.02579
  C  -0.94914   3.21261   8.92779
  C  -0.05514   2.63101   2.95989
  C  -1.82724   3.72015  10.09039
  H  -0.82324   0.83798   4.94199
  H   0.79286   0.77917   8.14329
  H  -0.59704   0.19204   7.27289
  H   1.54146   3.50258   7.14839
  H   1.64436   4.24914   4.56219
  H  -1.18184   1.15393   9.54749
  H  -2.16034   1.76865   8.27179
  H   0.08876   3.41697   9.19069
  H  -1.12514   3.79375   8.02259
  H  -0.85054   3.35392   2.77879
  H  -0.55814   1.72377   2.62519
  H   0.85906   2.87555   2.41899
  H  -1.44874   4.61373  10.58669
  H  -1.80384   3.00114  10.90929
  H  -2.83744   3.93781   9.74379
  N   0.12756   1.95455   6.41999
  N   0.26886   2.56829   4.37979
  C   2.20446  -3.08593   1.80619
  C   0.88096  -4.86973   2.91199
  C   3.47626  -3.95923   1.46739
  C   0.56566  -2.81603   3.63719
  C  -0.13634  -3.62833   4.36309
  C   4.04596  -4.78953   2.67399
  C  -0.37594  -6.14153   4.60239
  C   4.50856  -3.83053   3.77809
  H   1.22676  -5.67113   2.27589
  H   1.50626  -2.89683   0.99079
  H   2.47626  -2.07533   2.11099
  H   0.47766  -1.74113   3.69509
  H  -0.64474  -3.41873   5.29259
  H   4.34496  -3.44073   1.06159
  H   3.16596  -4.65203   0.68519
  H   4.96946  -5.34373   2.50579
  H   3.38246  -5.53883   3.10579
  H  -0.31954  -6.99083   3.92159
  H  -1.31844  -6.05663   5.14319
  H   0.39596  -6.57173   5.24039
  H   5.07666  -4.41763   4.49969
  H   3.73996  -3.19653   4.21999
  H   5.17846  -3.07873   3.36079
  N   1.30036  -3.62833   2.79369
  N   0.12796  -4.91743   3.96839
  C   0.08706  -5.07023  -0.99441
  C   0.51856  -4.72373  -3.13451
  N  -0.35504  -4.82583  -2.18211
  N   0.56306  -5.54483  -0.03431
  N   1.27266  -4.87083  -4.00391
