  60
# Step 2423, RM=C2N3[231] (5 atoms), C8H15N2[172] (25 atoms), C8H15N2[393] (25 atoms), C2N3[218] (5 atoms)
  C  -0.92060   0.59695  -0.17057
  C   0.97030  -0.61755  -0.13767
  N  -0.00260  -0.04845  -0.81537
  N  -1.67880   1.23985   0.44463
  N   1.63880  -1.17375   0.63503
  C   2.32730  -8.06032  -0.26717
  C   3.11230  -7.38712  -2.52257
  C   1.81120  -6.67846   0.24253
  C   4.61340  -8.43995  -1.35837
  C   5.24360  -8.04330  -2.50587
  C   2.83140  -5.73492   0.78413
  C   4.51570  -6.70650  -4.54227
  C   2.30210  -4.42830   1.42743
  H   2.18640  -6.97379  -2.89447
  H   2.73980  -8.67013   0.53663
  H   1.49210  -8.58736  -0.72837
  H   5.09040  -9.09291  -0.64247
  H   6.26000  -8.27941  -2.78447
  H   1.17780  -6.88472   1.10523
  H   1.15660  -6.25053  -0.51667
  H   3.59140  -5.40587   0.07543
  H   3.35210  -6.23015   1.60373
  H   5.20790  -5.88439  -4.36037
  H   3.66770  -6.41474  -5.16177
  H   5.10160  -7.39238  -5.15417
  H   2.97770  -4.00778   2.17223
  H   2.09450  -3.62879   0.71623
  H   1.40670  -4.65821   2.00483
  N   3.40210  -7.91774  -1.32767
  N   4.22050  -7.38667  -3.26587
  C  -3.79180   3.41565   3.85133
  C  -5.60060   4.81225   4.87383
  C  -3.42840   3.17375   2.38453
  C  -6.30220   3.20465   3.54603
  C  -7.40400   3.85355   3.99653
  C  -3.67300   4.41435   1.61733
  C  -7.63450   6.05825   5.29593
  C  -3.25900   4.33165   0.17283
  H  -4.97690   5.21585   5.65773
  H  -3.03880   4.11145   4.22153
  H  -3.67570   2.41055   4.25663
  H  -6.22570   2.35955   2.87793
  H  -8.45660   3.66385   3.84673
  H  -3.97700   2.29605   2.04293
  H  -2.38780   2.87425   2.25973
  H  -2.90170   5.10305   1.96223
  H  -4.64610   4.90505   1.63833
  H  -6.96890   6.89805   5.09623
  H  -8.61350   6.18495   4.83383
  H  -7.82580   6.16525   6.36363
  H  -2.75120   5.23885  -0.15467
  H  -2.61460   3.46665   0.01533
  H  -4.09910   4.01095  -0.44317
  N  -5.17360   3.83025   4.08733
  N  -6.90510   4.89075   4.81163
  C  -1.13640   0.27925   5.89243
  C  -0.05500  -0.21935   7.70823
  N  -1.16750   0.04805   7.14113
  N  -1.14680   0.41525   4.75733
  N   0.99160  -0.37955   8.13183
