  52
# Step 869, RM=Cl[473] (1 atoms), C8H15N2[287] (25 atoms), C8H15N2[400] (25 atoms), Cl[215] (1 atoms)
  Cl   0.00000   0.00000   0.00000
  C  -2.36350   2.16372  -0.69820
  C  -1.05970   3.57485  -2.23700
  C  -3.76040   1.66073  -0.67320
  C  -2.74900   4.63584  -1.32090
  C  -2.27830   5.36144  -2.28650
  C  -3.95420   0.54353   0.40290
  C  -0.40050   5.27394  -4.04121
  C  -5.40230   0.00484   0.38270
  H  -0.28400   2.84224  -2.40430
  H  -1.86100   2.17280   0.26890
  H  -1.89980   1.38359  -1.30190
  H  -3.60580   4.73144  -0.67040
  H  -2.59990   6.37934  -2.45040
  H  -4.30940   2.50708  -0.26040
  H  -4.16370   1.42304  -1.65760
  H  -3.71100   0.95026   1.38450
  H  -3.32510  -0.31957   0.18530
  H   0.23260   6.10764  -3.73733
  H  -1.18120   5.47874  -4.77378
  H   0.31280   4.62704  -4.55188
  H  -5.78900  -0.38089  -0.56050
  H  -5.44250  -0.91999   0.95820
  H  -6.05630   0.76526   0.80950
  N  -2.04700   3.45000  -1.37390
  N  -1.17940   4.73534  -2.87520
  C   0.46830  -0.81720  -3.38095
  C   2.48020  -2.04108  -3.69569
  C  -0.85840  -1.27668  -3.91117
  C   1.66540  -1.19541  -5.50389
  C   2.64860  -2.00028  -5.85506
  C  -0.96240  -2.74855  -4.25530
  C   4.36460  -3.42033  -4.54289
  C  -1.08230  -3.80550  -3.07567
  H   2.56480  -2.20574  -2.63170
  H   0.66200  -1.03867  -2.33140
  H   0.46280   0.27253  -3.35716
  H   1.05600  -0.61837  -6.18372
  H   3.22390  -2.29400  -6.72057
  H  -1.62410  -0.92106  -3.22168
  H  -0.98980  -0.65671  -4.79801
  H  -1.94730  -2.85680  -4.70952
  H  -0.37290  -3.11188  -5.09708
  H   5.26290  -2.89873  -4.87326
  H   4.65440  -3.65373  -3.51835
  H   4.26650  -4.31044  -5.16431
  H  -0.13080  -3.87660  -2.54870
  H  -1.09320  -4.80477  -3.51092
  H  -1.85720  -3.59638  -2.33810
  N   1.56610  -1.28229  -4.13416
  N   3.19080  -2.51433  -4.64464
  Cl   4.70590  -2.10096  -0.90060
