  60
# Step 19838, RM=C2N3[52] (5 atoms), C8H15N2[222] (25 atoms), C8H15N2[297] (25 atoms), C2N3[210] (5 atoms)
  C  -0.32210   1.09247  -0.22047
  C   0.39125  -1.07933   0.16313
  N   0.62385   0.20907  -0.13477
  N  -1.03161   1.94467  -0.22797
  N   0.34845  -2.16503   0.41193
  C  -0.78811  -1.13993  -7.61007
  C  -0.82281   0.42467  -5.67417
  C   0.36969  -1.89873  -8.30147
  C   0.05129  -1.53783  -5.23937
  C   0.09779  -0.73513  -4.13797
  C  -0.07861  -2.29683  -9.73206
  C  -0.80011   1.50957  -3.46077
  C   1.04839  -3.06093  -10.44869
  H  -1.16331   1.31127  -6.18837
  H  -1.64881  -1.79453  -7.47217
  H  -1.03151  -0.27513  -8.22727
  H   0.45099  -2.51793  -5.45387
  H   0.59369  -0.91713  -3.19597
  H   0.53059  -2.83113  -7.76017
  H   1.31939  -1.36463  -8.33067
  H  -0.31691  -1.37343  -10.26005
  H  -0.91451  -2.98583  -9.61085
  H  -1.40121   2.32537  -3.86227
  H  -1.24671   1.18257  -2.52177
  H   0.15499   2.01577  -3.32077
  H   1.96269  -2.46903  -10.49242
  H   1.24219  -4.00063  -9.93152
  H   0.85329  -3.27433  -11.49962
  N  -0.49971  -0.71753  -6.21507
  N  -0.57731   0.41417  -4.40957
  C   4.99789   3.11957   2.25063
  C   3.62387   4.03657   0.33143
  C   5.18172   4.55177   2.83293
  C   3.42824   1.87397   0.71323
  C   2.90673   2.26037  -0.43877
  C   4.09575   4.92167   3.88963
  C   2.68155   4.17507  -1.96787
  C   4.43274   6.30057   4.58303
  H   3.69660   5.10957   0.43093
  H   5.99449   2.81217   1.93393
  H   4.62561   2.43567   3.01343
  H   3.44787   0.90897   1.19773
  H   2.47417   1.52457  -1.10047
  H   6.11909   4.51487   3.38803
  H   5.39642   5.16867   1.96033
  H   4.05144   4.11147   4.61743
  H   3.09072   4.94787   3.46853
  H   3.45688   4.39707  -2.70117
  H   2.22195   5.12687  -1.70177
  H   1.99244   3.59657  -2.58317
  H   3.50810   6.64307   5.04763
  H   4.67044   7.04767   3.82583
  H   5.26357   6.27617   5.28823
  N   4.04118   3.07157   1.15743
  N   3.12226   3.52647  -0.72937
  C   5.93759   1.32637  -4.46527
  C   3.99272   0.85197  -3.40147
  N   5.23627   0.89797  -3.41367
  N   6.61569   1.60257  -5.37917
  N   2.79494   0.87567  -3.41847
