  60
# Step 12021, RM=C2N3[53] (5 atoms), C8H15N2[142] (25 atoms), C8H15N2[190] (25 atoms), C2N3[366] (5 atoms)
  C   0.66027   0.36450   0.79324
  C  -0.69573  -0.52090  -0.67046
  N  -0.35483  -0.40970   0.60904
  N   1.46137   1.16190   1.03244
  N  -1.07613  -0.61810  -1.74676
  C  -7.12463   2.64870  -2.45846
  C  -5.83783   1.12910  -0.94286
  C  -7.65113   2.30680  -3.83256
  C  -4.93803   1.56020  -2.87056
  C  -4.18933   0.67960  -2.18606
  C  -9.07643   2.77840  -4.14216
  C  -4.21993  -0.32850   0.12814
  C  -10.18735   2.13820  -3.22946
  H  -6.51043   1.10970  -0.09816
  H  -6.84143   3.70120  -2.45526
  H  -7.93503   2.44390  -1.75896
  H  -4.73873   1.94030  -3.86166
  H  -3.24403   0.20970  -2.41406
  H  -7.04303   2.78810  -4.59846
  H  -7.54563   1.22560  -3.92126
  H  -9.16543   2.49900  -5.19196
  H  -9.14443   3.86600  -4.16536
  H  -4.84453  -0.30910   1.02124
  H  -3.19563  -0.10090   0.42314
  H  -4.20453  -1.34720  -0.25926
  H  -10.24935   1.05630  -3.11256
  H  -10.18119   2.48260  -2.19536
  H  -11.16616   2.48520  -3.56056
  N  -5.98253   1.83960  -2.02876
  N  -4.71753   0.51730  -0.93906
  C   4.15757   0.91720   4.48464
  C   3.96147   2.04440   2.21334
  C   5.28627   0.49720   5.39834
  C   5.83017   0.91970   2.49744
  C   5.88317   1.53260   1.32514
  C   6.45557   1.51630   5.65304
  C   4.25407   3.11580   0.05534
  C   6.14957   2.43980   6.80864
  H   2.98007   2.46420   2.37804
  H   3.63597   1.77100   4.91714
  H   3.41757   0.11700   4.50004
  H   6.35517   0.06480   2.89734
  H   6.67997   1.52700   0.59624
  H   5.69937  -0.42830   4.99714
  H   4.97197   0.11270   6.36854
  H   6.67767   2.14960   4.79414
  H   7.36587   0.95510   5.86394
  H   3.81307   4.00870   0.49844
  H   3.58257   2.55980  -0.59886
  H   5.08077   3.42630  -0.58366
  H   5.43817   3.20030   6.48664
  H   5.82697   1.85510   7.67014
  H   7.02647   3.03190   7.07074
  N   4.65037   1.30380   3.09874
  N   4.69427   2.24110   1.17364
  C  -4.12613   5.91500   0.79124
  C  -3.36793   3.83770   0.76844
  N  -3.13033   5.12470   0.84134
  N  -4.96223   6.69520   0.64664
  N  -3.41483   2.69860   0.71524
