  52
# Step 697, RM=Cl[244] (1 atoms), C8H15N2[271] (25 atoms), C8H15N2[334] (25 atoms), Cl[472] (1 atoms)
  Cl   0.00000   0.00000   0.00000
  C   1.67320  -3.10310   0.20660
  C   0.34890  -5.19990  -0.13700
  C   2.71980  -3.34450  -0.92780
  C  -0.67350  -3.55710   0.96920
  C  -1.52710  -4.58700   0.91170
  C   2.13490  -2.83570  -2.27950
  C  -1.28840  -7.00470  -0.05930
  C   3.13050  -3.16740  -3.42150
  H   1.04840  -5.86190  -0.62590
  H   2.38190  -3.28870   1.01380
  H   1.41390  -2.04620   0.26860
  H  -0.73100  -2.59450   1.45560
  H  -2.48210  -4.78840   1.37400
  H   3.68580  -2.92410  -0.64830
  H   2.95700  -4.40840  -0.93080
  H   1.20820  -3.35210  -2.52990
  H   2.07090  -1.75300  -2.17170
  H  -1.20600  -7.57060   0.86860
  H  -0.81220  -7.60600  -0.83380
  H  -2.36670  -6.98130  -0.21640
  H   2.68650  -2.88120  -4.37494
  H   4.06590  -2.64140  -3.23080
  H   3.34850  -4.23520  -3.40550
  N   0.48690  -3.97660   0.28570
  N  -0.86060  -5.63430   0.20860
  C  -4.66486  -0.34530  -0.94090
  C  -3.20870   0.19670   1.04630
  C  -3.52112  -0.81870  -1.88850
  C  -5.23398  -0.54550   1.54900
  C  -4.60188  -0.19030   2.66060
  C  -2.79400  -2.06090  -1.39770
  C  -2.29370   0.69820   3.28020
  C  -1.76220  -2.64310  -2.41020
  H  -2.33260   0.52780   0.50860
  H  -5.19907   0.53660  -1.29420
  H  -5.44876  -1.10060  -0.99690
  H  -6.21629  -0.94270   1.34000
  H  -4.81716  -0.17760   3.71880
  H  -3.88162  -0.84470  -2.91680
  H  -2.80650  -0.00980  -1.73660
  H  -2.35970  -1.90960  -0.40950
  H  -3.51536  -2.85590  -1.20880
  H  -1.97430   1.70310   3.00400
  H  -2.71750   0.83250   4.27540
  H  -1.41040   0.06150   3.22990
  H  -1.43180  -3.62360  -2.06720
  H  -0.89140  -2.07410  -2.73560
  H  -2.31100  -2.93140  -3.30680
  N  -4.33257  -0.27020   0.48830
  N  -3.32428   0.28810   2.31140
  Cl  -2.43610   3.96870   1.01900
