  52
# Step 434, RM=Cl[83] (1 atoms), C8H15N2[265] (25 atoms), C8H15N2[349] (25 atoms), Cl[76] (1 atoms)
  Cl   0.00000   0.00000   0.00000
  C   0.46990  -4.20525   0.52280
  C   1.38599  -2.78555  -1.36230
  C  -0.69433  -3.32945   0.97410
  C   2.33149  -4.77085  -1.03350
  C   2.94739  -4.21705  -2.06670
  C  -2.07468  -3.97455   0.85190
  C   2.79699  -1.94895  -3.16700
  C  -3.22678  -2.92375   0.72440
  H   0.70522  -1.94925  -1.42270
  H   0.03253  -5.17605   0.28960
  H   1.19609  -4.44195   1.30040
  H   2.50439  -5.73295  -0.57430
  H   3.71059  -4.54695  -2.75600
  H  -0.65835  -2.48435   0.28660
  H  -0.59135  -2.82195   1.93320
  H  -2.23335  -4.76465   1.58580
  H  -2.05790  -4.48965  -0.10850
  H   2.38339  -2.25125  -4.12910
  H   2.51139  -0.95435  -2.82450
  H   3.87749  -1.83515  -3.25440
  H  -3.05102  -2.35735   1.63900
  H  -4.22953  -3.34995   0.69320
  H  -3.19271  -2.21885  -0.10620
  N   1.32049  -3.87385  -0.59850
  N   2.39479  -2.96715  -2.21270
  C   2.36129   4.31006   0.23320
  C   4.46209   2.95052   0.11360
  C   0.82873   4.10161   0.37660
  C   2.66349   1.83791  -0.34790
  C   3.64139   0.86730  -0.27850
  C   0.14329   5.22908   1.06990
  C   6.12099   1.12737   0.12750
  C   0.24024   6.59188   0.30940
  H   5.06619   3.80237   0.38900
  H   2.70809   4.99723  -0.53860
  H   2.59499   4.66942   1.23540
  H   1.62279   1.81617  -0.63590
  H   3.64479  -0.18168  -0.53540
  H   0.60166   3.17403   0.90210
  H   0.38366   3.89368  -0.59640
  H   0.34014   5.29608   2.13990
  H  -0.92436   5.02273   1.14510
  H   6.56929   0.80905  -0.81360
  H   6.19579   0.21386   0.71740
  H   6.91969   1.78601   0.46870
  H  -0.40603   7.41789   0.60630
  H  -0.21875   6.29482  -0.63360
  H   1.23079   6.98662   0.08340
  N   3.17749   3.05707   0.02780
  N   4.75829   1.65354   0.01830
  Cl   2.56699   0.53019  -5.59830
