  60
# Step 14316, RM=C2N3[250] (5 atoms), C8H15N2[236] (25 atoms), C8H15N2[414] (25 atoms), C2N3[267] (5 atoms)
  C   0.44521  -0.04784  -0.98764
  C  -0.43649   0.00701   1.03816
  N   0.44741  -0.52031   0.19716
  N   0.68301   0.22106  -2.08574
  N  -1.13789   0.33427   1.84526
  C  -2.08319   4.98385   3.24386
  C  -0.25379   3.28499   2.80026
  C  -2.15809   5.63987   4.60406
  C   0.38241   5.37165   2.49836
  C   1.39771   4.59742   2.12276
  C  -3.52059   6.41959   4.77056
  C   1.89281   2.14902   2.23836
  C  -3.66829   6.92227   6.20676
  H  -0.82489   2.47462   3.22866
  H  -2.45939   5.60188   2.42856
  H  -2.78999   4.15620   3.18416
  H   0.25411   6.43559   2.36436
  H   2.37141   4.74937   1.68106
  H  -1.31789   6.31038   4.78486
  H  -1.98479   4.90456   5.38976
  H  -4.40049   5.82404   4.52716
  H  -3.54549   7.20259   4.01266
  H   2.91511   2.40783   2.51396
  H   1.86251   1.76303   1.21946
  H   1.58791   1.28208   2.82456
  H  -2.88699   7.58325   6.58206
  H  -4.54369   7.57128   6.18556
  H  -3.84829   6.11503   6.91676
  N  -0.63779   4.55251   2.85946
  N   1.00591   3.29825   2.40846
  C  -0.43779  -4.86810  -0.09544
  C  -0.22569  -3.32650   1.84056
  C   0.13621  -4.26380  -1.38694
  C   1.14621  -5.01220   1.92766
  C   1.34691  -4.28300   3.02696
  C   1.68011  -4.03380  -1.53544
  C   0.44021  -2.02010   3.89716
  C   2.58161  -5.25590  -1.50954
  H  -0.84849  -2.53040   1.46006
  H  -1.52579  -4.82210  -0.14284
  H  -0.22809  -5.93330  -0.19254
  H   1.62831  -5.92310   1.60466
  H   2.00961  -4.30610   3.87946
  H  -0.22709  -3.23760  -1.44284
  H  -0.32679  -4.82750  -2.19694
  H   1.94241  -3.36760  -0.71354
  H   1.71381  -3.46540  -2.46484
  H   0.89981  -1.13890   3.44956
  H  -0.54939  -1.83170   4.31326
  H   1.10411  -2.28750   4.71926
  H   2.23281  -5.98200  -2.24384
  H   2.64061  -5.64180  -0.49184
  H   3.57641  -4.99990  -1.87424
  N   0.17341  -4.37510   1.13936
  N   0.47151  -3.20600   2.97526
  C  -3.99369  -2.16877  -0.47584
  C  -4.52809  -3.71368   0.96356
  N  -3.62719  -2.92730   0.53426
  N  -4.37409  -1.55224  -1.34834
  N  -5.24239  -4.51990   1.41296
