  52
# Step 627, RM=Cl[139] (1 atoms), C8H15N2[303] (25 atoms), C8H15N2[475] (25 atoms), Cl[211] (1 atoms)
  Cl   0.00000   0.00000   0.00000
  C  -0.35700  -3.54270  -3.25510
  C   0.63370  -5.23010  -1.60930
  C  -1.51630  -2.57660  -2.79990
  C   0.95590  -3.09500  -1.11630
  C   1.39370  -3.86770  -0.08090
  C  -2.52010  -2.32840  -3.85800
  C   1.81420  -6.30620   0.40210
  C  -3.56100  -1.28840  -3.42740
  H   0.43120  -6.20890  -2.01840
  H   0.22280  -3.00030  -4.00190
  H  -0.64830  -4.46370  -3.75990
  H   0.90390  -2.01690  -1.15580
  H   1.88580  -3.51400   0.81300
  H  -2.03860  -2.93450  -1.91260
  H  -1.11730  -1.66510  -2.35490
  H  -2.93470  -3.30330  -4.11420
  H  -2.09780  -1.88990  -4.76210
  H   1.49510  -6.27480   1.44390
  H   2.88110  -6.08540   0.43670
  H   1.74720  -7.32710   0.02630
  H  -4.13892  -1.43960  -2.51570
  H  -2.93590  -0.40230  -3.31700
  H  -4.33136  -1.17310  -4.18980
  N   0.46070  -3.94980  -2.08110
  N   1.23420  -5.17330  -0.43370
  C   2.71560  -0.61960   2.29070
  C   2.27130  -0.56050   4.89750
  C   4.19770  -0.88590   2.53020
  C   0.61310  -0.24980   3.58000
  C   0.18680  -0.19520   4.84070
  C   4.84100   0.40840   3.12800
  C   1.22810   0.03140   7.08170
  C   5.27890   1.46090   2.04880
  H   3.30150  -0.63840   5.21200
  H   2.44600   0.18990   1.61230
  H   2.31620  -1.51530   1.81490
  H   0.17110  -0.12710   2.60230
  H  -0.79140   0.04230   5.23200
  H   4.32630  -1.60560   3.33870
  H   4.68530  -1.22870   1.61760
  H   5.71870   0.11360   3.70320
  H   4.21710   0.98410   3.81170
  H   1.90310  -0.64970   7.60000
  H   1.62110   1.01570   7.33640
  H   0.24740  -0.14040   7.52530
  H   5.79160   2.27770   2.55700
  H   5.91670   1.05150   1.26540
  H   4.43870   1.93900   1.54530
  N   1.94430  -0.51320   3.60420
  N   1.27470  -0.14880   5.64370
  Cl   2.58730  -4.49350   3.44040
