  52
# Step 141, RM=Cl[323] (1 atoms), C8H15N2[56] (25 atoms), C8H15N2[450] (25 atoms), Cl[178] (1 atoms)
  Cl   0.00000   0.00000   0.00000
  C   6.21340  -0.97580  -0.08120
  C   4.06912  -1.77050  -0.86800
  C   7.25410  -1.34950   1.07770
  C   4.27571  -1.78150   1.32630
  C   3.03281  -2.10010   0.98960
  C   8.63450  -0.78090   0.82310
  C   1.79980  -2.68750  -1.22750
  C   9.54990  -0.85940   2.08230
  H   4.29776  -1.74630  -1.92320
  H   6.20200   0.11270  -0.13690
  H   6.58650  -1.34180  -1.03770
  H   4.75910  -1.64410   2.28220
  H   2.18820  -2.24240   1.64740
  H   6.76040  -1.19470   2.03710
  H   7.31180  -2.43290   1.18310
  H   9.08650  -1.11910  -0.10930
  H   8.54550   0.27790   0.57970
  H   1.81833  -2.10040  -2.14570
  H   1.94203  -3.75196  -1.41390
  H   0.84990  -2.50240  -0.72590
  H  10.52510  -0.40420   1.90940
  H   9.76740  -1.89930   2.32600
  H   9.06420  -0.38430   2.93470
  N   4.89790  -1.49010   0.10190
  N   2.94797  -2.19350  -0.35970
  C  -0.12742   4.40380  -3.01610
  C  -0.37007   1.93650  -3.00520
  C  -0.25189   4.68850  -1.49680
  C  -1.02412   2.88160  -4.87000
  C  -1.35234   1.63220  -4.85250
  C  -1.41950   4.02340  -0.78980
  C  -0.45191  -0.37590  -3.90030
  C  -1.79076   4.55450   0.58260
  H   0.17757   1.75830  -2.09160
  H  -0.46990   5.29250  -3.54620
  H   0.91944   4.47060  -3.31230
  H  -1.15433   3.66030  -5.60690
  H  -1.76887   1.06960  -5.67500
  H   0.63644   4.43140  -0.91990
  H  -0.14347   5.77140  -1.43630
  H  -1.06104   3.01270  -0.59440
  H  -2.30715   3.90380  -1.41100
  H   0.35326  -0.65650  -4.57930
  H  -0.04286  -0.77630  -2.97270
  H  -1.35776  -0.95040  -4.09370
  H  -2.58019   3.96230   1.04550
  H  -2.33204   5.50050   0.56950
  H  -0.94921   4.64500   1.26940
  N  -0.61576   3.12410  -3.60670
  N  -0.68751   1.02540  -3.87330
  Cl  -0.25798  -5.71222   0.05590
