  52
# Step 748, RM=Cl[301] (1 atoms), C8H15N2[62] (25 atoms), C8H15N2[335] (25 atoms), Cl[196] (1 atoms)
  Cl   0.00000  -0.00000   0.00000
  C   2.09780   0.43873   2.72540
  C   1.09000   1.49132   4.73030
  C   3.26160  -0.19799   3.44950
  C  -0.08340   1.62245   2.95160
  C  -0.78260   2.10868   3.98760
  C   2.80330  -1.42604   4.18520
  C  -0.28320   2.66385   6.37490
  C   3.86740  -1.94748   5.10500
  H   1.93030   1.38182   5.39980
  H   2.52440   1.14190   2.01010
  H   1.65270  -0.37792   2.15700
  H  -0.34620   1.67570   1.90540
  H  -1.71180   2.65658   3.93480
  H   4.10620  -0.34302   2.77580
  H   3.79430   0.48625   4.10990
  H   1.97160  -1.11341   4.81650
  H   2.38360  -2.10801   3.44570
  H  -0.12270   1.87080   7.10520
  H   0.37710   3.47887   6.67120
  H  -1.30700   3.02313   6.27130
  H   4.36230  -1.08046   5.54250
  H   4.62660  -2.54213   4.59710
  H   3.40320  -2.51922   5.90860
  N   1.02860   1.06161   3.49860
  N   0.01400   2.08941   5.11550
  C   2.10210  -3.37930  -0.54740
  C   3.07240  -1.06512  -0.43390
  C   1.43380  -4.06616   0.63370
  C   4.29730  -2.60154   0.49930
  C   5.03510  -1.46561   0.41440
  C   0.30440  -3.31505   1.38680
  C   4.67390   0.87251  -0.44920
  C  -0.24790  -4.02418   2.64340
  H   2.23620  -0.64007  -0.96920
  H   2.76970  -4.01359  -1.13060
  H   1.41220  -2.91688  -1.25320
  H   4.59360  -3.58127   0.84390
  H   6.05080  -1.22617   0.69280
  H   1.05530  -5.04952   0.35470
  H   2.22160  -4.25876   1.36200
  H   0.60070  -2.28402   1.58000
  H  -0.54250  -3.14854   0.72120
  H   4.29760   1.14372  -1.43550
  H   4.22510   1.47512   0.34050
  H   5.72960   1.14075  -0.40790
  H  -1.10950  -3.62310   3.17700
  H  -0.48960  -5.05320   2.37730
  H   0.56480  -4.13495   3.36130
  N   3.11270  -2.36243  -0.19630
  N   4.26500  -0.52789  -0.14030
  Cl  -3.34260   2.66427   1.91150
