  52
# Step 226, RM=Cl[156] (1 atoms), C8H15N2[141] (25 atoms), C8H15N2[412] (25 atoms), Cl[18] (1 atoms)
  Cl   0.00000   0.00000   0.00000
  C  -0.57920   5.64020   4.10390
  C   0.39540   4.89860   1.91250
  C  -2.03790   5.82250   4.11460
  C  -0.04020   3.33270   3.32040
  C   0.48840   2.79070   2.25230
  C  -2.72520   6.04580   2.74690
  C   1.16930   3.60210  -0.01700
  C  -4.29710   5.88120   2.88860
  H   0.37760   5.85520   1.41150
  H  -0.27670   5.16250   5.03570
  H  -0.14670   6.63670   4.01390
  H  -0.44450   2.84670   4.19610
  H   0.70990   1.75540   2.03910
  H  -2.24210   6.68410   4.75030
  H  -2.46090   4.86720   4.42530
  H  -2.34880   5.33270   2.01350
  H  -2.59170   7.05950   2.36940
  H   2.22730   3.38960  -0.17070
  H   0.60120   2.76550  -0.42350
  H   0.95540   4.41830  -0.70710
  H  -4.47170   4.85610   3.21540
  H  -4.71520   5.99840   1.88880
  H  -4.78370   6.63960   3.50190
  N  -0.05250   4.67520   3.18110
  N   0.76780   3.75630   1.36410
  C   5.80260   1.05870   3.39560
  C   6.91200   2.84630   4.63070
  C   5.68860   0.67960   1.89680
  C   8.11320   1.99490   3.11220
  C   8.87110   2.90430   3.68320
  C   4.36180   0.01270   1.51210
  C   8.40930   4.61190   5.41640
  C   3.20570   1.01350   1.30800
  H   6.14590   2.96180   5.38310
  H   5.97770   0.09360   3.87100
  H   4.81640   1.33170   3.77100
  H   8.41800   1.20570   2.44090
  H   9.90610   3.13400   3.47700
  H   5.79440   1.53180   1.22540
  H   6.54220   0.09700   1.55040
  H   4.37890  -0.70900   0.69540
  H   4.06060  -0.61350   2.35190
  H   9.45360   4.56080   5.72450
  H   7.95610   4.60830   6.40780
  H   8.07680   5.55310   4.97850
  H   3.35230   1.62270   0.41610
  H   2.28350   0.47110   1.09970
  H   3.01240   1.60400   2.20360
  N   6.92140   1.94370   3.73670
  N   8.04650   3.50730   4.61430
  Cl   2.02520   3.55140  -3.61850
