  52
# Step 694, RM=Cl[186] (1 atoms), C8H15N2[315] (25 atoms), C8H15N2[373] (25 atoms), Cl[20] (1 atoms)
  Cl   0.00000   0.00000   0.00000
  C  -0.72770   1.91250  -3.43250
  C  -2.55500   0.66950  -2.29260
  C  -0.66980   3.28870  -4.10070
  C  -3.16500   1.44880  -4.18350
  C  -4.22660   1.15440  -3.50880
  C  -1.56820   4.35730  -3.36890
  C  -4.57440  -0.40510  -1.48360
  C  -1.27400   5.74230  -3.87760
  H  -1.91610   0.48500  -1.44170
  H  -0.25190   1.93810  -2.45210
  H  -0.27190   1.23940  -4.15850
  H  -3.08950   1.91300  -5.15580
  H  -5.24590   1.11160  -3.86310
  H  -0.96250   3.14300  -5.14050
  H   0.39290   3.49930  -3.98120
  H  -1.37260   4.29860  -2.29820
  H  -2.62850   4.11230  -3.43110
  H  -5.44020   0.18460  -1.18210
  H  -4.88660  -1.33270  -1.96350
  H  -4.03720  -0.73750  -0.59540
  H  -0.20970   5.95990  -3.78810
  H  -1.50260   5.85560  -4.93730
  H  -1.80940   6.58310  -3.43650
  N  -2.08230   1.36350  -3.36130
  N  -3.80610   0.36250  -2.42730
  C  -0.33900   2.56996   2.12910
  C  -0.35200   4.88924   1.33790
  C   0.96950   2.08754   2.88920
  C   0.78220   3.41355   0.04690
  C   0.89040   4.66163  -0.49480
  C   0.74320   1.07373   3.93930
  C   0.30610   7.01824   0.53560
  C   1.83270   0.06704   4.09120
  H  -0.91660   5.28331   2.17000
  H  -0.81620   1.72674   1.62980
  H  -1.01670   2.98733   2.87370
  H   1.22690   2.49687  -0.31140
  H   1.37990   5.06224  -1.37020
  H   1.56720   1.56596   2.14160
  H   1.39900   2.99570   3.31200
  H   0.53720   1.60194   4.87020
  H  -0.15060   0.45061   3.90680
  H  -0.65330   7.53318   0.58530
  H   0.89930   7.47321   1.32890
  H   0.68830   7.34797  -0.43050
  H   2.05470  -0.39262   3.12810
  H   2.72840   0.52558   4.51020
  H   1.53430  -0.73818   4.76250
  N  -0.05380   3.60219   1.18220
  N   0.31260   5.51848   0.42360
  Cl  -0.06110  -5.79660  -1.47750
