  52
# Step 272, RM=Cl[41] (1 atoms), C8H15N2[302] (25 atoms), C8H15N2[486] (25 atoms), Cl[13] (1 atoms)
  Cl   0.00000   0.00000   0.00000
  C   0.13640  -4.73450  -1.85183
  C  -1.03010  -2.56320  -1.65270
  C   1.39880  -4.32450  -1.06551
  C  -2.39458  -4.22600  -1.83776
  C  -3.07808  -3.12790  -1.56703
  C   1.23010  -4.39500   0.49151
  C  -2.62787  -0.67160  -1.72004
  C   1.23520  -5.82070   1.05951
  H  -0.06130  -2.08750  -1.69307
  H   0.51270  -4.96040  -2.84958
  H  -0.06530  -5.67540  -1.34003
  H  -2.73373  -5.25040  -1.79378
  H  -4.12577  -3.05620  -1.31483
  H   1.88210  -3.40990  -1.40897
  H   2.22280  -5.00630  -1.27593
  H   1.91420  -3.67290   0.93731
  H   0.22290  -4.01680   0.66631
  H  -3.71088  -0.74880  -1.81612
  H  -2.14675  -0.14990  -2.54736
  H  -2.44036  -0.08050  -0.82362
  H   0.50590  -6.43770   0.53441
  H   1.14310  -5.82350   2.14561
  H   2.19750  -6.27140   0.81681
  N  -1.07760  -3.88830  -1.79950
  N  -2.21309  -2.06950  -1.69853
  C  -2.30705  -1.38760   2.13101
  C  -1.49320   0.75050   3.15591
  C  -3.70471  -1.98150   2.26811
  C  -1.89310  -0.81110   4.58381
  C  -1.15110   0.08100   5.18881
  C  -4.80872  -0.93950   2.44641
  C   0.13860   2.07340   4.44731
  C  -5.09828   0.07810   1.30011
  H  -1.47350   1.35150   2.25871
  H  -2.23047  -0.76540   1.23931
  H  -1.54610  -2.15150   1.97121
  H  -2.19315  -1.76360   4.99511
  H  -0.80300   0.09830   6.21101
  H  -4.01197  -2.63870   1.45461
  H  -3.73901  -2.57500   3.18171
  H  -5.77682  -1.29480   2.79941
  H  -4.55216  -0.29320   3.28571
  H  -0.21800   2.95270   3.91091
  H   1.08590   1.86580   3.94981
  H   0.33320   2.37310   5.47711
  H  -5.31510  -0.48150   0.39011
  H  -5.93831   0.71840   1.56911
  H  -4.25420   0.73710   1.09691
  N  -1.87150  -0.49580   3.24141
  N  -0.95840   1.08440   4.28191
  Cl  -1.88450   4.05930   1.97841
