  60
# Step 367, RM=C2N3[118] (5 atoms), C8H15N2[37] (25 atoms), C8H15N2[474] (25 atoms), C2N3[381] (5 atoms)
  C   0.96061   0.48484  -0.29576
  C  -1.00939  -0.31516   0.30424
  N  -0.26939   0.68484   0.04424
  N   2.07061   0.38484  -0.62576
  N  -1.75939  -1.21516   0.57424
  C  -0.45939   4.38484  -1.79576
  C   1.41061   5.38484  -3.07576
  C  -1.37939   3.28484  -2.40576
  C   1.82061   3.38484  -2.36576
  C   2.94061   3.78484  -2.94576
  C  -1.55939   3.38484  -3.92576
  C   3.57061   5.98484  -4.11576
  C  -2.20939   4.78484  -4.35576
  H   0.91061   6.28484  -3.33576
  H  -0.35939   4.18484  -0.72576
  H  -0.93939   5.38484  -1.86576
  H   1.64061   2.38484  -1.91576
  H   3.90061   3.38484  -3.07576
  H  -2.36939   3.28484  -1.94576
  H  -0.98939   2.28484  -2.18576
  H  -0.58939   3.28484  -4.39576
  H  -2.15939   2.58484  -4.28576
  H   3.50061   6.98484  -3.74576
  H   4.62061   5.68484  -3.97576
  H   3.35061   6.08484  -5.18576
  H  -1.57939   5.58484  -4.13576
  H  -3.15939   4.88484  -3.83576
  H  -2.43939   4.78484  -5.41576
  N   0.88061   4.38484  -2.39576
  N   2.66061   5.08484  -3.39576
  C   4.19061  -0.71516   1.54424
  C   6.44061  -0.81516   0.49424
  C   3.79061   0.38484   2.54424
  C   5.17061   0.78484  -0.29576
  C   6.37061   0.78484  -0.91576
  C   4.93061   0.78484   3.47424
  C   8.57061  -0.41516  -0.72576
  C   4.47061   1.88484   4.52424
  H   6.75061  -1.71516   1.03424
  H   3.31061  -1.01516   1.00424
  H   4.51061  -1.61516   2.10424
  H   4.27061   1.28484  -0.39576
  H   6.74061   1.48484  -1.65576
  H   3.35061   1.18484   1.99424
  H   2.96061  -0.01516   3.12424
  H   5.35061  -0.01516   3.98424
  H   5.72061   1.28484   2.85424
  H   9.14061  -0.91516   0.07424
  H   8.61061  -1.11516  -1.58576
  H   9.09061   0.48484  -0.98576
  H   4.12061   2.78484   4.03424
  H   5.28061   2.08484   5.20424
  H   3.65061   1.48484   5.11424
  N   5.25061  -0.31516   0.61424
  N   7.17061  -0.21516  -0.37576
  C  -1.37939  -0.71153   4.07424
  C   0.48061  -1.21153   2.95424
  N  -0.14939  -0.41153   3.76424
  N  -2.49939  -0.81153   4.36424
  N   1.20061  -1.81153   2.29424
