  60
# Step 488, RM=C2N3[67] (5 atoms), C8H15N2[344] (25 atoms), C8H15N2[409] (25 atoms), C2N3[253] (5 atoms)
  C  -0.64120  -0.79698   0.52121
  C   0.52880   0.90302  -0.47879
  N  -0.41120   0.50302   0.42121
  N  -0.79120  -1.89698   0.72121
  N   1.29880   1.30302  -1.17879
  C   0.05880   1.60302  -6.47879
  C   1.21880   0.50302  -4.57879
  C  -0.01120   1.10302  -7.87879
  C   2.53880   1.30302  -6.07879
  C   3.29880   0.80302  -5.07879
  C  -0.10120  -0.39698  -7.97879
  C   2.84880  -0.39698  -2.87879
  C  -0.18120  -0.79698  -9.47879
  H   0.33880   0.20302  -3.97879
  H   0.03880   2.70302  -6.47879
  H  -0.86120   1.40302  -5.87879
  H   2.80880   1.80302  -6.97879
  H   4.37880   0.70302  -4.97879
  H   0.85880   1.50302  -8.47879
  H  -0.86120   1.60302  -8.37879
  H   0.76880  -0.89698  -7.57879
  H  -0.98120  -0.69698  -7.47879
  H   3.42880  -1.29698  -3.17879
  H   3.47880   0.30302  -2.27879
  H   1.98880  -0.69698  -2.27879
  H   0.64880  -0.49698  -10.07879
  H  -1.09120  -0.49698  -9.97879
  H  -0.16120  -1.89698  -9.47879
  N   1.22880   1.20302  -5.67879
  N   2.44880   0.30302  -4.17879
  C  -0.70757   3.90302  -1.97516
  C   0.02243   5.40302  -3.77516
  C  -1.56757   2.70302  -2.37516
  C   1.39243   3.80302  -3.37516
  C   1.83243   4.40302  -4.47516
  C  -2.23757   2.90302  -3.77516
  C   1.00243   6.30302  -5.87516
  C  -3.13757   1.70302  -4.17516
  H  -0.79757   6.10302  -3.77516
  H  -0.13757   3.60302  -1.07516
  H  -1.36757   4.70302  -1.57516
  H   1.78243   2.90302  -2.87516
  H   2.69243   4.20302  -5.07516
  H  -2.31757   2.50302  -1.67516
  H  -0.92757   1.80302  -2.47516
  H  -1.49757   3.00302  -4.57516
  H  -2.80757   3.80302  -3.77516
  H   0.32243   6.00302  -6.67516
  H   2.00243   6.30302  -6.27516
  H   0.78243   7.30302  -5.57516
  H  -2.57757   0.80302  -4.17516
  H  -3.94757   1.60302  -3.37516
  H  -3.56757   1.80302  -5.07516
  N   0.22243   4.40302  -2.97516
  N   0.94243   5.40302  -4.67516
  C   0.39243  -2.59698  -2.87879
  C   1.44243  -4.19698  -1.77879
  N   1.49243  -3.19698  -2.57879
  N  -0.52757  -1.89698  -3.07879
  N   1.53243  -4.99698  -0.97879
