  70
# Step 832, RM=BF4[246] (5 atoms), C9H20N[181] (30 atoms), C9H20N[229] (30 atoms), BF4[34] (5 atoms)
  B   0.02235   0.00886   0.00262
  F  -0.53425   1.15746  -0.46275
  F  -0.95895  -0.60764   0.73420
  F   0.35865  -0.84444  -1.04015
  F   1.12185   0.28956   0.76722
  C  -5.51965   3.70375  -1.11094
  C  -4.46915   3.52152  -3.22036
  C  -3.72495   1.95496  -1.39733
  C  -6.24255   4.80121  -1.98792
  C  -5.44275   4.67055  -3.30050
  C  -4.29495   0.67605  -2.02643
  C  -3.92475  -0.58527  -1.28578
  C  -3.19415   4.25262  -1.41500
  C  -4.39975  -1.84925  -2.03413
  H  -6.19215   2.84611  -1.12906
  H  -4.94975   2.61812  -3.59582
  H  -3.57435   3.55265  -3.84203
  H  -5.52515   4.01841  -0.06736
  H  -2.66945   1.95597  -1.66973
  H  -3.77605   1.79903  -0.31975
  H  -6.06085   4.54982  -4.19022
  H  -4.84825   5.55811  -3.51704
  H  -6.10785   5.79498  -1.56083
  H  -7.30135   4.60619  -2.15804
  H  -3.99745   0.71923  -3.07417
  H  -5.38095   0.75097  -2.08173
  H  -4.42625  -0.55449  -0.31846
  H  -2.83495  -0.56847  -1.27321
  H  -3.00375   4.38621  -0.35010
  H  -2.20565   4.15982  -1.86482
  H  -3.56765   5.21968  -1.75176
  H  -4.54255  -2.72413  -1.39986
  H  -5.34695  -1.70289  -2.55330
  H  -3.61995  -2.08473  -2.75838
  N  -4.26485   3.27463  -1.79161
  C   1.65285   3.31795   0.55701
  C   1.53585   5.15616  -0.88054
  C   0.80155   5.53477   1.28599
  C   2.11145   3.99001  -1.74264
  C   2.26915   2.79305  -0.77902
  C   0.96365   5.40667   2.84933
  C  -0.18135   6.13721   3.63804
  C   3.10255   5.28866   0.86429
  C  -0.21755   5.74823   5.15321
  H   1.98435   6.11604  -1.13658
  H   2.09685   2.99321   1.49803
  H   0.62365   2.95903   0.55467
  H   0.46225   5.24466  -1.04678
  H   0.68815   6.51936   0.83231
  H  -0.20385   5.13452   1.15520
  H   3.30335   2.53647  -0.54922
  H   2.97185   4.33188  -2.31794
  H   1.37305   3.79405  -2.52016
  H   1.72475   1.93562  -1.17464
  H   1.91615   5.81486   3.18726
  H   1.12205   4.34653   3.04709
  H  -1.14555   5.92669   3.17532
  H  -0.09015   7.22319   3.65857
  H   3.34685   5.09192   1.90818
  H   3.89545   4.88328   0.23576
  H   3.12775   6.35302   0.63062
  H  -0.52865   4.72877   5.38131
  H  -0.95135   6.41963   5.59921
  H   0.80345   5.79235   5.53231
  N   1.76165   4.79582   0.48888
  B   3.92185   2.88036   4.56881
  F   4.44305   1.94226   5.39341
  F   4.90075   3.74436   4.19501
  F   3.41965   2.25446   3.50507
  F   2.98975   3.64336   5.20031
