  76
# Step 669, RM=CF3O3S[119] (8 atoms), CF3O3S[212] (8 atoms), C9H20N[277] (30 atoms), C9H20N[319] (30 atoms)
  C   0.20765   0.75532  -0.42172
  F   1.29178   0.63052  -1.27237
  F   0.54842   1.83762   0.28626
  F  -0.75326   1.02442  -1.18105
  O  -0.31393  -1.76698  -0.60112
  O   0.83454  -0.92948   1.42136
  O  -1.49885  -0.38528   1.05026
  S  -0.23365  -0.81448   0.50866
  C  -2.45659   1.71152  -4.60252
  F  -1.93079   2.92072  -4.43114
  F  -1.42329   0.91222  -4.47689
  F  -3.19589   1.52442  -3.50796
  O  -3.59109   0.04572  -6.27212
  O  -4.41009   2.38492  -5.86962
  O  -2.42769   2.01622  -7.13355
  S  -3.33679   1.45502  -6.16361
  C  -3.94979  -3.87448  -2.92198
  C  -3.24789  -2.20048  -4.34439
  C  -3.17229  -1.77568  -1.93408
  C  -3.81559  -4.53268  -4.31699
  C  -3.31819  -3.40838  -5.24286
  C  -4.59519  -1.28858  -1.72583
  C  -4.53109  -0.01908  -0.87451
  C  -1.63879  -3.32608  -2.85607
  C  -5.85859   0.79342  -1.00082
  H  -4.97079  -3.49638  -2.87150
  H  -3.80189  -4.49398  -2.03745
  H  -2.33699  -1.68028  -4.64050
  H  -4.11749  -1.54338  -4.35641
  H  -2.87999  -2.21058  -0.97831
  H  -2.53639  -0.94678  -2.24502
  H  -2.34329  -3.57198  -5.70214
  H  -4.04989  -3.20858  -6.02560
  H  -4.78889  -4.90988  -4.63056
  H  -3.10219  -5.35588  -4.27879
  H  -5.09229  -2.04968  -1.12438
  H  -5.24219  -1.07848  -2.57757
  H  -3.74399   0.64602  -1.22979
  H  -4.26359  -0.22928   0.16102
  H  -1.50989  -3.87938  -1.92586
  H  -0.90719  -2.51808  -2.85141
  H  -1.26449  -4.11298  -3.51078
  H  -5.85089   1.23882  -1.99564
  H  -5.91369   1.53922  -0.20789
  H  -6.80539   0.28102  -0.83002
  N  -2.98759  -2.73328  -3.00543
  C  -3.67299   2.75602   4.55736
  C  -4.10349   1.15222   3.03736
  C  -2.05439   2.55242   2.62136
  C  -4.69139   1.83612   5.19856
  C  -5.10219   0.86672   4.13486
  C  -2.77789   3.65532   1.77976
  C  -1.92959   4.59952   0.96696
  C  -2.03949   0.98472   4.41296
  C  -0.83239   5.35912   1.74696
  H  -4.26959   3.52602   4.06826
  H  -3.09889   3.31802   5.29406
  H  -3.81589   0.18762   2.61926
  H  -4.61459   1.74262   2.27696
  H  -1.19729   2.86782   3.21636
  H  -1.58109   1.90922   1.87946
  H  -5.56229   2.45922   5.40166
  H  -6.11889   0.95582   3.75196
  H  -5.06879  -0.20448   4.33336
  H  -4.30049   1.43812   6.13496
  H  -3.36879   3.04412   1.09766
  H  -3.42009   4.30842   2.37066
  H  -2.47819   5.26152   0.29686
  H  -1.39889   3.99962   0.22766
  H  -1.53529   0.32312   3.70866
  H  -1.27509   1.40132   5.06896
  H  -2.55569   0.26862   5.05246
  H  -1.02429   6.42862   1.66056
  H   0.14541   5.23872   1.28056
  H  -0.82289   5.07762   2.79996
  N  -2.93509   1.85302   3.63486
