  76
# Step 627, RM=CF3O3S[180] (8 atoms), CF3O3S[20] (8 atoms), C9H20N[107] (30 atoms), C9H20N[500] (30 atoms)
  C   0.36507   0.82083   0.01933
  F  -0.42003   1.87893   0.09158
  F   1.15597   1.00283  -1.05271
  F   1.14177   0.83413   1.04710
  O  -1.20843  -0.70787  -1.24873
  O  -1.11693  -0.83507   1.27065
  O   0.66807  -1.79807  -0.06000
  S  -0.42233  -0.84197  -0.03917
  C   3.96497   3.99315   3.27716
  F   3.46747   2.79406   3.51546
  F   5.15197   3.81138   2.67159
  F   3.08667   4.51616   2.49017
  O   2.96117   4.70905   5.57406
  O   4.33367   6.28010   4.42056
  O   5.30037   4.29697   5.50566
  S   4.15137   4.95055   4.85776
  C  -5.13273   1.26127  -2.96928
  C  -4.72003   3.02557  -1.61350
  C  -6.37923   3.36363  -3.31776
  C  -4.24243   0.68337  -1.83651
  C  -3.75123   1.96439  -1.17274
  C  -7.55193   2.84493  -4.22208
  C  -8.05663   3.97035  -5.18256
  C  -6.85913   1.98143  -1.35992
  C  -8.68163   3.41860  -6.42278
  H  -5.04423   3.66900  -0.79560
  H  -4.12393   3.54314  -2.36507
  H  -4.42693   1.64102  -3.70797
  H  -5.70293   0.38609  -3.28079
  H  -6.67523   4.30170  -2.84821
  H  -5.56063   3.69283  -3.95784
  H  -4.81153   0.10322  -1.11011
  H  -3.40623   0.08255  -2.19410
  H  -3.74353   1.94222  -0.08299
  H  -2.75303   2.20967  -1.53549
  H  -7.11813   1.98341  -4.72979
  H  -8.31903   2.36086  -3.61763
  H  -8.78703   4.58384  -4.65508
  H  -7.25813   4.67305  -5.42101
  H  -7.44543   2.82854  -1.00387
  H  -7.53503   1.29095  -1.86431
  H  -6.46543   1.40402  -0.52342
  H  -8.02023   2.63925  -6.80134
  H  -9.72583   3.11140  -6.36563
  H  -8.64383   4.19414  -7.18778
  N  -5.82373   2.40097  -2.32058
  C  -4.78003   0.41234   2.58268
  C  -4.60153   1.64960   4.57006
  C  -2.76063   1.85265   2.92092
  C  -5.94853   0.81586   4.74636
  C  -6.11843   0.07230   3.36926
  C  -1.82593   2.59170   3.87386
  C  -0.84083   3.54083   3.04528
  C  -2.99393  -0.25579   4.03436
  C  -0.12283   4.42382   4.12946
  H  -4.39563  -0.38658   1.94858
  H  -5.00233   1.21864   1.88372
  H  -4.19583   1.87786   5.55566
  H  -4.88973   2.62333   4.17396
  H  -3.34363   2.60168   2.38505
  H  -2.22513   1.41329   2.07928
  H  -6.87823   1.33611   4.97676
  H  -7.01043   0.26036   2.77177
  H  -5.76343   0.13045   5.57346
  H  -6.32373  -0.99017   3.49996
  H  -1.07083   2.01043   4.40306
  H  -2.33333   3.23147   4.59596
  H  -0.23873   2.80164   2.51698
  H  -1.37753   4.10612   2.28334
  H  -2.33493   0.07146   4.83856
  H  -3.73853  -0.98380   4.35636
  H  -2.41983  -0.69081   3.21616
  H   0.15107   3.85188   5.01606
  H   0.70227   4.96753   3.66926
  H  -0.89643   5.07922   4.52956
  N  -3.76483   0.93174   3.56336
