  76
# Step 403, RM=CF3O3S[399] (8 atoms), CF3O3S[169] (8 atoms), C9H20N[14] (30 atoms), C9H20N[462] (30 atoms)
  C   0.19088  -0.84658   0.08187
  F   1.44748  -1.11948   0.26707
  F  -0.14192  -1.42388  -1.07113
  F  -0.49522  -1.54168   0.96087
  O   0.65068   1.33112  -1.12033
  O  -1.59352   0.92782  -0.30953
  O   0.20138   1.40742   1.23897
  S  -0.18162   0.90802  -0.02833
  C   1.43918  -0.18438   4.76237
  F   0.31958  -0.00218   4.08317
  F   1.10598  -0.80138   5.85047
  F   2.09498  -1.07868   4.07997
  O   2.39038   2.06012   3.74687
  O   3.69048   0.84192   5.47597
  O   1.65708   2.04512   6.02847
  S   2.41778   1.39362   5.05357
  C   2.57228  -6.08988  -1.40343
  C   4.11918  -4.40418  -1.31963
  C   2.25138  -4.41058   0.36967
  C   4.45248  -5.12728  -2.63403
  C   3.43908  -6.27178  -2.69953
  C   0.99778  -5.19808   0.88367
  C   0.58258  -4.82728   2.32067
  C   1.84668  -3.82398  -1.85533
  C   1.51648  -5.40208   3.40947
  H   4.62638  -4.88608  -0.48373
  H   2.87848  -6.76358  -0.60313
  H   1.53758  -6.37378  -1.59573
  H   4.32148  -3.33358  -1.28663
  H   3.07428  -4.69298   1.02617
  H   2.14638  -3.40018   0.76497
  H   3.92058  -7.21778  -2.94713
  H   2.82968  -5.98978  -3.55813
  H   4.31268  -4.61668  -3.58683
  H   5.46358  -5.52738  -2.55853
  H   1.13868  -6.27128   0.75537
  H   0.19808  -4.93378   0.19177
  H  -0.43312  -5.22228   2.33867
  H   0.49208  -3.75058   2.46397
  H   1.85438  -2.75088  -1.66433
  H   0.80528  -4.11968  -1.72803
  H   1.98248  -3.85548  -2.93633
  H   2.58748  -5.28668   3.24327
  H   1.14488  -5.04748   4.37077
  H   1.39608  -6.48408   3.35527
  N   2.67008  -4.67548  -1.03073
  C  -0.22612   5.50175  -0.33733
  C  -2.00932   6.62047   0.38387
  C  -1.50902   4.43341   1.46057
  C  -0.37502   6.62222  -1.43243
  C  -1.57682   7.39619  -0.89303
  C  -0.62362   4.98493   2.58137
  C  -0.66942   4.24153   3.86187
  C  -2.40842   4.52370  -0.77373
  C  -0.00382   4.93232   5.02337
  H  -3.05712   6.71368   0.66937
  H  -1.58782   7.08499   1.27537
  H   0.13038   4.53104  -0.68193
  H   0.46288   5.85919   0.42787
  H  -2.46362   4.28015   1.96397
  H  -1.17132   3.42824   1.20817
  H  -1.44302   8.47529  -0.81733
  H  -2.32512   7.47770  -1.68143
  H  -0.65772   6.30869  -2.43733
  H   0.56508   7.17348  -1.41323
  H   0.45448   5.06700   2.44317
  H  -0.97032   5.96493   2.90927
  H  -1.63372   3.96988   4.29127
  H  -0.13132   3.30900   3.69197
  H  -3.45802   4.54063  -0.48043
  H  -2.26602   3.44396  -0.72893
  H  -2.48282   4.85323  -1.81003
  H  -0.32742   5.97315   5.01527
  H   1.08078   4.94471   4.91617
  H  -0.26662   4.54274   6.00687
  N  -1.59552   5.26103   0.23217
