  70
# Step 401, RM=BF4[116] (5 atoms), C9H20N[53] (30 atoms), C9H20N[478] (30 atoms), BF4[337] (5 atoms)
  B  -0.01407  -0.01725   0.00035
  F  -1.38037   0.14385   0.14715
  F   0.32233  -1.26455  -0.43705
  F   0.59943   0.29295   1.23095
  F   0.46663   0.83755  -0.94125
  C   8.60283  -1.61635   1.08155
  C   8.24043   0.61115   1.78885
  C   6.70193  -1.11445   2.57525
  C   9.77773  -0.88655   0.55215
  C   9.59713   0.59145   0.98475
  C   5.60123  -0.58245   1.68085
  C   4.34583  -1.44435   2.00255
  C   9.04353  -0.94425   3.31485
  C   3.23493  -0.95755   1.15915
  H   8.67613  -2.67835   1.31595
  H   8.16583   1.28995   2.63845
  H   7.48573   0.85785   1.04205
  H   7.92543  -1.60115   0.22775
  H   6.55063  -0.79095   3.60505
  H   6.56583  -2.19595   2.57395
  H  10.31743   0.93905   1.72535
  H   9.59443   1.27875   0.13875
  H  10.68033  -1.19515   1.07975
  H   9.91593  -1.03435  -0.51895
  H   5.88753  -0.61425   0.62965
  H   5.29063   0.43955   1.89835
  H   4.11113  -1.27705   3.05375
  H   4.56463  -2.50985   1.93275
  H   8.79233  -0.25435   4.12055
  H  10.11163  -0.88715   3.10505
  H   8.98633  -1.91535   3.80645
  H   2.30733  -1.43445   1.47595
  H   3.56593  -1.28615   0.17395
  H   3.05783   0.11535   1.08515
  N   8.10783  -0.76915   2.20315
  C   2.81223   2.52462  -0.96335
  C   4.91253   3.18370  -0.34025
  C   4.55213   1.91200  -2.50645
  C   2.53663   3.45066   0.24945
  C   3.88473   3.92028   0.60585
  C   4.93593   0.54206  -1.84565
  C   5.19103  -0.52179  -2.91195
  C   3.93833   4.14213  -2.33085
  C   5.37223  -1.92244  -2.33675
  H   2.04393   2.45616  -1.73355
  H   2.75143   1.49962  -0.59755
  H   5.67243   3.93181  -0.56615
  H   5.39383   2.35187   0.17395
  H   3.79353   1.75101  -3.27235
  H   5.43583   2.22388  -3.06295
  H   2.01003   2.88605   1.01885
  H   2.07873   4.37854  -0.09335
  H   4.04673   3.74422   1.66925
  H   3.99763   5.00438   0.59715
  H   4.18503   0.07636  -1.20745
  H   5.87263   0.58805  -1.29015
  H   6.11033  -0.32619  -3.46405
  H   4.38193  -0.63369  -3.63365
  H   3.84543   5.01313  -1.68215
  H   4.74443   4.40988  -3.01385
  H   3.06253   4.19891  -2.97725
  H   6.29273  -1.94077  -1.75325
  H   4.54373  -2.24409  -1.70565
  H   5.47253  -2.67915  -3.11475
  N   4.12883   2.92184  -1.52135
  B  -5.69527  -0.22025   2.20225
  F  -5.36157   0.47245   1.00035
  F  -6.28427   0.75425   2.96715
  F  -6.61567  -1.16695   1.96905
  F  -4.55407  -0.69765   2.83725
