  76
# Step 282, RM=CF3O3S[145] (8 atoms), CF3O3S[326] (8 atoms), C9H20N[357] (30 atoms), C9H20N[391] (30 atoms)
  C  -0.40818  -0.68388   0.46402
  F   0.05382  -0.64658   1.70492
  F  -0.15908  -1.90501   0.07302
  F  -1.71448  -0.59588   0.58702
  O  -0.39458   0.81542  -1.71128
  O   0.17332   1.78512   0.35472
  O   1.83082   0.33022  -0.71278
  S   0.42792   0.65862  -0.54248
  C   1.69742  -2.08161   5.38852
  F   2.22062  -3.05662   4.64572
  F   0.74802  -2.61528   6.17322
  F   1.08312  -1.23918   4.60052
  O   4.06292  -1.04818   5.66702
  O   2.22332   0.01962   6.78892
  O   3.04352  -2.16557   7.56562
  S   2.94352  -1.20308   6.52602
  C   0.41892   4.40682   3.62332
  C  -0.80978   2.83972   4.77962
  C  -1.82508   5.08512   4.52052
  C   1.30302   3.15062   3.61662
  C   0.47162   2.10642   4.34392
  C  -1.33128   5.91562   5.72732
  C  -2.39288   6.93892   6.26392
  C  -1.52258   3.64752   2.59612
  C  -2.42678   8.26752   5.49362
  H  -1.65368   2.16582   4.92692
  H  -0.66938   3.18312   5.80452
  H   0.87452   4.99842   4.41732
  H   0.58072   5.08482   2.78542
  H  -1.86078   5.87912   3.77462
  H  -2.84908   4.72852   4.63232
  H   1.43402   2.75442   2.60962
  H   2.20582   3.17402   4.22692
  H   0.98692   1.73452   5.22952
  H   0.22442   1.24342   3.72562
  H  -0.37028   6.38772   5.52322
  H  -1.21448   5.12262   6.46602
  H  -2.14638   7.12712   7.30882
  H  -3.37738   6.47702   6.33832
  H  -0.98528   2.80762   2.15572
  H  -1.44498   4.35932   1.77432
  H  -2.51388   3.20672   2.70122
  H  -3.24438   8.27182   4.77272
  H  -2.47838   9.13482   6.15172
  H  -1.50898   8.33622   4.90972
  N  -0.95928   4.03522   3.89772
  C  -2.63908   5.37042  -2.76308
  C  -1.56148   3.48492  -3.62778
  C  -2.64418   3.39052  -1.33938
  C  -1.85608   5.83082  -4.05648
  C  -1.39478   4.55012  -4.74978
  C  -3.94118   2.63832  -1.66328
  C  -4.54607   1.76902  -0.61018
  C  -0.53008   4.52572  -1.84998
  C  -5.46811   0.70312  -1.23978
  H  -2.40468   2.84392  -3.88508
  H  -0.63878   2.90832  -3.56358
  H  -3.60748   5.07822  -3.16918
  H  -2.71368   6.13122  -1.98608
  H  -2.78578   4.02112  -0.46168
  H  -1.97488   2.57642  -1.06128
  H  -2.12918   4.35492  -5.53118
  H  -1.05608   6.53702  -3.83418
  H  -2.43158   6.50882  -4.68668
  H  -0.39458   4.66332  -5.16808
  H  -3.82728   2.05442  -2.57658
  H  -4.80168   3.26482  -1.89828
  H  -5.08272   2.40552   0.09342
  H  -3.81358   1.27632   0.02912
  H  -0.10338   3.62392  -1.41098
  H   0.14302   5.12832  -2.45978
  H  -0.81048   5.08762  -0.95908
  H  -4.85068  -0.10368  -1.63468
  H  -5.95141   1.15302  -2.10698
  H  -6.21417   0.33082  -0.53768
  N  -1.89398   4.16532  -2.39448
