  70
# Step 71, RM=BF4[453] (5 atoms), C9H20N[402] (30 atoms), C9H20N[417] (30 atoms), BF4[129] (5 atoms)
  B   0.00274   0.01363  -0.02900
  F   1.27084   0.07883   0.56730
  F  -0.95166   0.41903   0.93460
  F  -0.21336  -1.34847  -0.35890
  F  -0.10736   0.84283  -1.12650
  C   3.31804  -1.19137  -1.47970
  C   4.85784   0.22143  -0.49620
  C   4.08954   0.65753  -2.80790
  C   4.68974  -0.82307   0.61890
  C   3.64524  -1.80307  -0.08540
  C   2.82294   1.49433  -2.50300
  C   2.71184   2.77013  -3.40580
  C   5.64734  -0.94397  -2.27870
  C   1.26584   3.27063  -3.26860
  H   4.20894   0.98663  -0.07020
  H   2.39734  -0.62107  -1.35620
  H   3.12534  -1.96777  -2.22000
  H   5.86314   0.63193  -0.59060
  H   3.90934   0.11413  -3.73550
  H   4.99314   1.25703  -2.91810
  H   4.17094  -0.38627   1.47220
  H   2.74214  -1.87527   0.52060
  H   5.66594  -1.25277   0.84340
  H   4.18014  -2.75247  -0.10750
  H   1.94254   0.88013  -2.69220
  H   2.83034   1.89123  -1.48790
  H   2.84934   2.38513  -4.41620
  H   3.47884   3.54163  -3.33750
  H   5.87554  -1.77507  -1.61120
  H   6.52464  -0.30577  -2.38380
  H   5.60244  -1.54117  -3.18940
  H   0.85954   3.44863  -4.26430
  H   1.34014   4.26503  -2.82850
  H   0.60364   2.61593  -2.70220
  N   4.44464  -0.28007  -1.81120
  C   1.32064   3.28303   1.51510
  C   0.06814   4.93233   2.54200
  C   0.46814   5.09093   0.20240
  C   1.14614   2.81553   3.00010
  C   0.24714   3.88353   3.64580
  C   1.60664   6.20963   0.17580
  C   1.38004   7.18033  -0.99920
  C  -1.05076   3.44933   0.98430
  C   2.38004   8.22833  -1.03440
  H  -0.85306   5.50843   2.62800
  H   0.91174   5.60023   2.71650
  H   2.28694   3.78653   1.48560
  H   1.35764   2.46513   0.79550
  H   0.63524   4.39263  -0.61770
  H  -0.48516   5.58913   0.02600
  H   0.65174   4.14833   4.62270
  H   0.75674   1.79763   3.02030
  H   2.14654   2.72373   3.42300
  H  -0.74626   3.47113   3.82270
  H   2.60704   5.79073   0.06720
  H   1.53084   6.80113   1.08810
  H   1.30844   6.58933  -1.91230
  H   0.44334   7.73573  -0.95240
  H  -0.93426   2.86743   0.07000
  H  -1.36356   2.71133   1.72290
  H  -1.95236   4.05273   0.87950
  H   3.39534   7.84663  -1.14190
  H   2.28874   8.88223  -1.90160
  H   2.30804   8.82383  -0.12430
  N   0.19054   4.21713   1.30060
  B  -3.32136   5.90193  -1.35590
  F  -4.41916   6.15633  -2.13830
  F  -2.28746   6.79223  -1.66490
  F  -2.92096   4.56063  -1.33040
  F  -3.56366   6.28523  -0.02170
