  70
# Step 549, RM=BF4[409] (5 atoms), C9H20N[139] (30 atoms), C9H20N[341] (30 atoms), BF4[255] (5 atoms)
  B   0.05579   0.02112  -0.02451
  F  -0.50751  -0.35318   1.17019
  F   0.84209   1.11062   0.21679
  F   0.63749  -1.10418  -0.58611
  F  -1.00381   0.33472  -0.78691
  C  -5.11341   2.84522   2.91089
  C  -3.20301   2.01022   3.50509
  C  -3.19751   3.75292   1.62959
  C  -4.16251   1.61142   4.65939
  C  -5.47861   2.15242   4.18529
  C  -3.15871   2.63682   0.60459
  C  -2.59591   3.16362  -0.67221
  C  -3.48851   4.38042   3.86819
  C  -3.40591   4.21402  -1.46461
  H  -2.22371   2.14452   3.96439
  H  -5.80631   3.68502   2.96429
  H  -5.34441   2.25972   2.02099
  H  -3.15151   1.11702   2.88249
  H  -3.89841   4.48952   1.23669
  H  -2.23411   4.26212   1.65549
  H  -4.12281   0.52732   4.76489
  H  -5.79681   2.84232   4.96679
  H  -3.94481   2.08792   5.61529
  H  -6.29921   1.46522   3.97919
  H  -2.52441   1.81112   0.92709
  H  -4.18611   2.27932   0.53629
  H  -2.47701   2.27362  -1.29011
  H  -1.53641   3.38312  -0.54081
  H  -3.85101   4.22602   4.88449
  H  -3.91111   5.34792   3.59699
  H  -2.42091   4.54792   4.01069
  H  -4.43481   3.98092  -1.73851
  H  -2.87651   4.52012  -2.36691
  H  -3.42201   5.10852  -0.84211
  N  -3.72051   3.30432   2.96909
  C   1.38629  -3.38858   1.89199
  C   3.57079  -3.81668   1.15269
  C   3.03779  -1.45868   1.99809
  C   1.47249  -4.89278   1.35699
  C   2.93059  -5.18968   1.15829
  C   4.51269  -0.98078   1.98279
  C   4.55139   0.54602   2.20259
  C   3.05639  -3.26138   3.50639
  C   6.00259   1.06562   2.23999
  H   0.71969  -3.36158   2.75399
  H   0.99309  -2.64288   1.20109
  H   3.45089  -3.37998   0.16119
  H   4.59429  -3.81838   1.52749
  H   2.62649  -0.96308   1.11869
  H   2.50579  -0.96658   2.81229
  H   2.98929  -5.70958   0.20209
  H   3.32559  -5.86288   1.91909
  H   0.90649  -5.12638   0.45519
  H   1.08309  -5.53858   2.14399
  H   4.98349  -1.52398   2.80209
  H   5.03609  -1.24298   1.06339
  H   3.91449   1.00182   1.44449
  H   4.18739   0.74102   3.21129
  H   2.40379  -2.76728   4.22629
  H   4.08229  -3.04698   3.80589
  H   3.00889  -4.27698   3.89939
  H   6.58649   0.51352   2.97649
  H   6.08129   2.13782   2.41929
  H   6.48909   0.98862   1.26759
  N   2.75969  -2.97078   2.10909
  B   5.50059  -1.57928  -3.25111
  F   6.11209  -2.32938  -4.23941
  F   4.18319  -1.19848  -3.54431
  F   6.27699  -0.42978  -3.07871
  F   5.46259  -2.27148  -2.07781
