  76
# Step 378, RM=CF3O3S[481] (8 atoms), CF3O3S[364] (8 atoms), C9H20N[73] (30 atoms), C9H20N[257] (30 atoms)
  C  -0.48235   0.71248   0.34116
  F  -0.27824   0.90068   1.60396
  F  -0.13152   1.90428  -0.20644
  F  -1.81443   0.49808   0.12216
  O   1.84481  -0.41682   0.02206
  O  -0.12188  -1.84422   0.35926
  O   0.26139  -0.72162  -1.76304
  S   0.50837  -0.73562  -0.33874
  C   2.78084   2.76478   2.54776
  F   3.63256   2.62218   3.57086
  F   2.75634   1.59388   1.88006
  F   1.61229   2.98728   3.04776
  O   2.46687   4.07588   0.35996
  O   4.68749   3.84578   1.00596
  O   3.26484   5.28228   2.27636
  S   3.35211   4.14248   1.46516
  C  -2.17697  -5.62992   3.50746
  C  -0.83592  -4.46512   1.95186
  C  -1.29773  -3.53322   4.23086
  C  -1.28102  -5.69372   1.24726
  C  -2.22534  -6.41932   2.15156
  C  -0.23761  -2.40552   4.22686
  C  -0.79777  -1.09072   4.98116
  C   0.15275  -5.48112   4.01176
  C   0.10676   0.15618   4.86116
  H  -1.42429  -3.58902   1.67896
  H  -2.22071  -6.26742   4.39046
  H  -3.14340  -5.13262   3.42476
  H   0.19121  -4.18532   1.71766
  H  -1.48007  -3.73792   5.28586
  H  -2.28411  -3.26792   3.85036
  H  -1.69498  -7.36922   2.21806
  H  -0.38356  -6.26302   1.00526
  H  -1.88245  -5.43132   0.37686
  H  -3.23344  -6.56492   1.76346
  H   0.23911  -2.16452   3.27666
  H   0.63704  -2.71102   4.80106
  H  -1.68438  -0.93202   4.36736
  H  -1.12808  -1.29262   6.00016
  H   1.09763  -4.94642   4.10846
  H   0.38175  -6.40342   3.47776
  H  -0.03228  -5.87522   5.01096
  H   0.21646   0.56588   5.86526
  H  -0.16016   0.91718   4.12786
  H   1.12540  -0.12162   4.59046
  N  -0.97523  -4.76962   3.40086
  C  -9.95081   1.09448  -1.81744
  C  -10.07491   2.88838  -0.36874
  C  -8.59971   0.95248   0.12606
  C  -11.02661   2.05758  -2.41464
  C  -11.10231   3.22138  -1.47964
  C  -7.30921   1.56538  -0.42384
  C  -6.20931   0.83798   0.29126
  C  -10.94561   0.65328   0.21716
  C  -4.89241   1.65168   0.51326
  H  -10.16441   0.09488  -2.19604
  H  -10.34271   3.14258   0.65676
  H  -9.16991   3.46838  -0.54924
  H  -9.05301   1.38608  -2.36234
  H  -8.61201   1.20178   1.18716
  H  -8.45371  -0.11982  -0.00414
  H  -12.09731   3.37138  -1.06064
  H  -10.96371   4.13828  -2.05254
  H  -11.96541   1.50408  -2.39364
  H  -10.98241   2.34158  -3.46604
  H  -7.12051   1.32908  -1.47104
  H  -7.17841   2.64028  -0.29874
  H  -6.57141   0.33008   1.18516
  H  -5.96021   0.05398  -0.42374
  H  -10.88271   0.65628   1.30536
  H  -11.91021   1.11608   0.00876
  H  -10.98971  -0.39252  -0.08714
  H  -5.18721   2.52798   1.09066
  H  -4.61691   2.01708  -0.47604
  H  -4.02231   1.17718   0.96696
  N  -9.86751   1.41988  -0.43274
