  70
# Step 401, RM=BF4[498] (5 atoms), C9H20N[96] (30 atoms), C9H20N[313] (30 atoms), BF4[476] (5 atoms)
  B   0.03079   0.00506  -0.01834
  F  -1.29026   0.00406   0.44736
  F   0.43000   1.34636  -0.05864
  F   0.77888  -0.72414   0.87456
  F   0.06387  -0.62914  -1.25284
  C  -4.55665   7.31176   1.02276
  C  -4.63726   7.39936   3.36146
  C  -3.54087   5.54166   2.28896
  C  -5.21686   8.67486   1.46096
  C  -5.22426   8.72246   2.95176
  C  -3.27893   4.70076   1.05526
  C  -1.94090   3.95576   1.09166
  C  -5.91676   5.76226   2.17636
  C  -1.91902   2.77896   1.89406
  H  -5.01043   6.87626   0.13256
  H  -5.03162   7.06156   4.31986
  H  -3.60711   7.56466   3.67696
  H  -3.51051   7.43286   0.74166
  H  -2.60146   6.02616   2.55526
  H  -3.76495   4.86196   3.11106
  H  -6.23458   8.72496   1.07386
  H  -4.65872   9.49546   1.01026
  H  -6.24892   8.92706   3.26216
  H  -4.67206   9.61096   3.25786
  H  -4.10335   3.99556   0.94986
  H  -3.34570   5.25366   0.11836
  H  -1.13110   4.59396   1.44526
  H  -1.83221   3.63756   0.05486
  H  -6.15915   5.20336   1.27256
  H  -6.01720   4.99656   2.94556
  H  -6.72894   6.48576   2.24766
  H  -2.06144   2.99036   2.95376
  H  -0.94434   2.29946   1.80406
  H  -2.70978   2.11486   1.54506
  N  -4.64026   6.47316   2.20436
  C   4.26760   0.68336  -3.75244
  C   4.60130  -1.43674  -4.35934
  C   2.74912  -0.23044  -5.44444
  C   5.46140   0.70406  -4.62454
  C   5.72670  -0.72204  -5.07694
  C   1.71875   0.90456  -5.34714
  C   0.83843   0.88696  -6.61524
  C   2.65008  -0.99564  -3.08614
  C   0.10939   2.17216  -6.65024
  H   4.60660   0.49326  -2.73404
  H   3.68552   1.59456  -3.61444
  H   4.89520  -1.89164  -3.41344
  H   4.23500  -2.28824  -4.93274
  H   3.35484   0.03146  -6.31194
  H   2.27078  -1.13434  -5.82174
  H   5.30970   1.27986  -5.53754
  H   5.63370  -0.70354  -6.16284
  H   6.30800   1.20656  -4.15674
  H   6.71110  -1.08164  -4.77744
  H   2.18721   1.88806  -5.31184
  H   1.05005   0.75406  -4.49964
  H   0.22996  -0.01734  -6.60134
  H   1.50575   0.73766  -7.46414
  H   2.33072  -2.00504  -3.34544
  H   3.25219  -1.22144  -2.20604
  H   1.81773  -0.34674  -2.81354
  H   0.80936   3.00166  -6.55004
  H  -0.15072   2.27386  -7.70384
  H  -0.74621   2.26866  -5.98184
  N   3.51885  -0.45094  -4.20004
  B  -1.40363  -4.49184   2.72306
  F  -2.65416  -4.17904   3.25906
  F  -1.28660  -4.02474   1.45766
  F  -1.26983  -5.87164   2.70206
  F  -0.39870  -3.91874   3.41246
