  70
# Step 405, RM=BF4[362] (5 atoms), C9H20N[269] (30 atoms), C9H20N[497] (30 atoms), BF4[68] (5 atoms)
  B  -0.00654  -0.02024  -0.02580
  F   0.50516  -0.98824  -0.89860
  F  -0.44054  -0.61584   1.15750
  F   1.03056   0.87206   0.26470
  F  -1.09144   0.74356  -0.50890
  C  -0.80974  -5.10074   3.55340
  C   0.24736  -3.31434   2.55420
  C   0.07736  -5.43614   1.26620
  C  -0.72714  -4.10554   4.68100
  C   0.00466  -2.90904   4.00080
  C  -1.26514  -5.07714   0.50860
  C  -1.39664  -5.57754  -0.85520
  C   1.63026  -5.15174   3.01420
  C  -2.60874  -5.00594  -1.61410
  H  -1.77404  -4.94504   3.06960
  H  -0.68074  -6.11884   3.92070
  H   1.08986  -2.83434   2.05640
  H  -0.59464  -2.88894   2.00810
  H   0.91386  -5.11934   0.64320
  H   0.11806  -6.52404   1.21330
  H  -0.53684  -1.96484   3.94300
  H   0.93036  -2.85174   4.57340
  H  -1.69854  -3.73034   5.00300
  H  -0.20504  -4.40304   5.59040
  H  -2.17554  -5.44724   0.98010
  H  -1.45154  -4.00664   0.42260
  H  -1.48444  -6.66214  -0.79210
  H  -0.52164  -5.28644  -1.43640
  H   2.41646  -5.01194   2.27220
  H   1.87166  -4.61124   3.92950
  H   1.56106  -6.21084   3.26230
  H  -2.70034  -5.67264  -2.47160
  H  -2.43384  -4.00504  -2.00870
  H  -3.56694  -4.90764  -1.10390
  N   0.31846  -4.76964   2.58590
  C   4.19346  -0.08004   0.21380
  C   5.62666  -0.06494  -1.51240
  C   3.84346  -1.89724  -1.45270
  C   4.78886   1.29116   0.39810
  C   5.80336   1.27216  -0.73620
  C   4.88156  -2.89204  -0.86440
  C   4.18846  -4.21594  -0.63240
  C   3.38936   0.33376  -2.15190
  C   5.17826  -5.36594  -0.45730
  H   3.19896  -0.00994   0.65430
  H   4.87686  -0.59844   0.88640
  H   5.94316   0.08026  -2.54530
  H   6.26476  -0.80114  -1.02370
  H   2.86886  -2.07354  -0.99740
  H   3.76796  -2.15084  -2.51010
  H   4.08526   2.06756   0.09770
  H   5.79786   2.05606  -1.49360
  H   6.80436   1.44846  -0.34250
  H   5.30406   1.40676   1.35170
  H   5.29386  -2.58984   0.09830
  H   5.66086  -3.03324  -1.61330
  H   3.67316  -4.51204  -1.54610
  H   3.40156  -4.16134   0.11980
  H   2.33186   0.22316  -1.91240
  H   3.32226   1.42166  -2.13990
  H   3.55556  -0.03174  -3.16530
  H   5.93466  -5.38404  -1.24190
  H   4.69536  -6.32934  -0.62080
  H   5.76656  -5.27354   0.45570
  N   4.22426  -0.43364  -1.24060
  B  -0.48774   0.11756  -5.19630
  F   0.64826  -0.09524  -4.48150
  F  -0.26834  -0.11424  -6.56130
  F  -1.40894  -0.81564  -4.75470
  F  -0.97374   1.36536  -5.17550
