  76
# Step 884, RM=CF3O3S[113] (8 atoms), CF3O3S[309] (8 atoms), C9H20N[317] (30 atoms), C9H20N[383] (30 atoms)
  C   0.50904  -0.29157   0.64465
  F   0.02094  -0.24517   1.88885
  F   1.72454   0.30613   0.67315
  F   0.72784  -1.56817   0.48035
  O  -1.69766  -0.56247  -0.72315
  O   0.30194   0.26143  -1.84765
  O  -0.76296   1.67343  -0.16735
  S  -0.57896   0.31743  -0.67775
  C  -4.00706   5.16363  -1.12825
  F  -3.27556   6.23673  -1.20905
  F  -3.10206   4.13193  -1.14685
  F  -4.54316   5.21653   0.08565
  O  -6.02386   4.01993  -2.27355
  O  -5.76086   6.50603  -2.35905
  O  -4.32436   5.00283  -3.62375
  S  -5.18376   5.17773  -2.51995
  C  -6.10106  -0.24237   1.48235
  C  -5.08056   0.21713  -0.54215
  C  -5.14906   2.03693   1.14625
  C  -6.61116  -1.38287   0.54225
  C  -5.84366  -1.16877  -0.80105
  C  -3.73256   1.72313   1.67465
  C  -3.08196   3.01323   2.29135
  C  -7.03276   1.46983   0.03355
  C  -1.78836   2.67573   3.02625
  H  -5.19176   0.83743  -1.43145
  H  -4.07486  -0.11687  -0.28715
  H  -6.91116  -0.10767   2.19915
  H  -5.18806  -0.58597   1.96855
  H  -4.95196   2.85663   0.45535
  H  -5.75096   2.48123   1.93915
  H  -7.69296  -1.32987   0.41995
  H  -6.41276  -2.33467   1.03515
  H  -6.47016  -1.01657  -1.67995
  H  -5.13166  -1.96877  -1.00385
  H  -3.86736   0.96683   2.44785
  H  -3.15666   1.29913   0.85205
  H  -3.83206   3.47623   2.93245
  H  -2.89526   3.76663   1.52605
  H  -7.69266   1.93443   0.76625
  H  -7.63746   0.72653  -0.48605
  H  -6.84866   2.33863  -0.59835
  H  -1.10686   1.95483   2.57465
  H  -1.16736   3.54013   3.26135
  H  -1.97626   2.15063   3.96275
  N  -5.82756   0.84553   0.56245
  C   3.59954   2.89493  -0.27205
  C   4.18444   4.82683   0.81955
  C   2.31884   4.87043  -0.83335
  C   4.57304   2.44993   0.82755
  C   5.11194   3.77753   1.36795
  C   3.00954   5.48043  -2.11965
  C   2.05634   6.15673  -3.15915
  C   1.95954   3.79993   1.26645
  C   0.88714   5.38023  -3.61635
  H   4.08224   3.06053  -1.23525
  H   4.65324   5.35853  -0.00845
  H   4.00814   5.60813   1.55885
  H   2.75334   2.23813  -0.47375
  H   2.03294   5.80143  -0.34385
  H   1.49714   4.23153  -1.15675
  H   6.08354   4.10043   0.99405
  H   5.09734   3.76473   2.45785
  H   4.20924   1.86093   1.66945
  H   5.28574   1.76263   0.37165
  H   3.77964   6.20733  -1.86135
  H   3.44464   4.64453  -2.66735
  H   2.66344   6.42193  -4.02465
  H   1.78454   7.12163  -2.73105
  H   1.60844   4.69003   1.78865
  H   1.08994   3.28063   0.86375
  H   2.33544   3.11153   2.02335
  H   1.22624   4.40833  -3.97495
  H   0.27704   5.80733  -4.41235
  H   0.25304   5.17223  -2.75455
  N   2.98914   4.14163   0.26395
