  76
# Step 533, RM=CF3O3S[258] (8 atoms), CF3O3S[134] (8 atoms), C9H20N[37] (30 atoms), C9H20N[400] (30 atoms)
  C   0.33979  -0.80720  -0.30604
  F   0.45629  -0.74323  -1.64274
  F   1.59789  -0.99610   0.14296
  F  -0.22631  -1.95022   0.03086
  O   0.46509   1.83042  -0.16324
  O  -1.66571   0.89078  -0.28664
  O  -0.42821   0.65131   1.76276
  S  -0.39751   0.80555   0.32986
  C  -2.33301  -4.67559  -1.99204
  F  -3.68851  -4.78289  -1.89714
  F  -1.86871  -4.69239  -0.73734
  F  -2.11081  -3.45320  -2.38774
  O  -0.27991  -5.78045  -3.03404
  O  -2.38441  -5.91930  -4.23884
  O  -1.98491  -7.14346  -2.17494
  S  -1.68911  -6.02475  -2.97704
  C   4.16619   3.76712   2.29926
  C   2.66729   1.95152   2.24726
  C   2.42519   3.35512   4.17906
  C   5.00389   2.50392   2.54486
  C   4.02239   1.33552   2.45756
  C   2.52909   4.79952   4.86746
  C   2.38169   4.73392   6.40566
  C   1.87899   4.26802   1.99306
  C   1.88229   6.00252   7.02506
  H   4.62239   4.65472   2.73766
  H   2.47839   1.95702   1.17376
  H   1.86959   1.35092   2.68436
  H   4.23879   4.00122   1.23716
  H   3.11649   2.64882   4.63866
  H   1.37159   3.10822   4.30956
  H   5.52939   2.57742   3.49696
  H   5.75409   2.29092   1.78346
  H   4.07459   0.91598   3.46216
  H   4.17979   0.55387   1.71436
  H   3.48539   5.29512   4.70026
  H   1.81069   5.46892   4.39436
  H   3.31529   4.43492   6.88216
  H   1.61209   4.03382   6.73086
  H   1.92139   5.33712   2.20156
  H   0.84239   3.96622   2.14226
  H   2.19889   4.24762   0.95126
  H   2.27109   6.90262   6.54896
  H   2.36119   6.11872   7.99726
  H   0.80779   6.18232   6.98866
  N   2.75799   3.36572   2.72206
  C  -3.87961  -0.40585   2.29696
  C  -4.33711  -2.49662   3.12846
  C  -4.53221  -0.45675   4.66406
  C  -3.72841  -2.76129   1.76106
  C  -3.40321  -1.38068   1.23156
  C  -6.03431  -0.12108   4.42426
  C  -6.88661   0.34857   5.64726
  C  -2.45571  -1.25825   4.03266
  C  -6.87071   1.83792   5.83666
  H  -4.88601  -0.13920   1.97436
  H  -3.27041   0.49136   2.18726
  H  -4.08411  -3.28735   3.83476
  H  -5.42111  -2.49588   3.01386
  H  -4.42041  -1.10555   5.53276
  H  -4.09621   0.47558   5.02296
  H  -3.58151  -1.15953   0.17926
  H  -2.77291  -3.28581   1.76306
  H  -4.34981  -3.37451   1.10846
  H  -2.31401  -1.39076   1.27146
  H  -6.10281   0.60996   3.61866
  H  -6.53801  -1.03608   4.11266
  H  -6.56121  -0.10244   6.58466
  H  -7.89051  -0.07498   5.61756
  H  -1.71851  -1.73243   3.38476
  H  -2.49531  -1.76767   4.99546
  H  -1.94671  -0.30896   4.19956
  H  -6.00491   2.19372   6.39506
  H  -7.01281   2.37932   4.90126
  H  -7.73181   2.06472   6.46526
  N  -3.82341  -1.12062   3.52556
