  70
# Step 722, RM=BF4[217] (5 atoms), C9H20N[167] (30 atoms), C9H20N[328] (30 atoms), BF4[113] (5 atoms)
  B   0.02751  -0.00576   0.00217
  F  -1.33929  -0.11876  -0.26413
  F   0.32731  -0.77866   1.10497
  F   0.70431  -0.44766  -1.10753
  F   0.29201   1.34834   0.26547
  C  -4.22559   4.03684  -2.19563
  C  -1.91239   3.79274  -1.77383
  C  -3.48629   2.36864  -0.35723
  C  -3.49069   4.78934  -3.27483
  C  -2.05729   4.79414  -2.93433
  C  -3.96729   3.40834   0.69097
  C  -3.87529   2.95164   2.12397
  C  -3.01979   1.88694  -2.64863
  C  -3.80529   4.02164   3.25817
  H  -1.04399   3.13894  -1.85533
  H  -1.84719   4.33584  -0.83103
  H  -4.29579   4.69534  -1.32993
  H  -5.18689   3.60404  -2.47263
  H  -4.39269   1.76444  -0.39593
  H  -2.61689   1.81564  -0.00153
  H  -1.74029   5.71784  -2.45023
  H  -3.49679   4.20954  -4.19793
  H  -1.37599   4.63214  -3.76953
  H  -3.94769   5.75704  -3.48143
  H  -3.31329   4.26794   0.54437
  H  -4.94049   3.85774   0.49347
  H  -4.66839   2.22264   2.28987
  H  -2.98299   2.32574   2.12107
  H  -3.85139   1.18594  -2.57723
  H  -2.81269   2.14794  -3.68643
  H  -2.16029   1.26524  -2.39753
  H  -3.10069   4.84734   3.15877
  H  -4.77879   4.45654   3.48437
  H  -3.40519   3.59574   4.17827
  N  -3.19529   3.01354  -1.73153
  C   2.23001  -3.48586  -2.24263
  C  -0.05839  -3.44876  -2.34733
  C   1.08791  -4.91296  -0.69353
  C   1.93581  -2.47956  -3.43013
  C   0.36591  -2.50596  -3.45653
  C   1.09301  -3.95686   0.59017
  C   1.12311  -4.82236   1.88727
  C   1.08021  -5.50806  -2.98543
  C   1.24781  -3.88246   3.13027
  H  -0.97199  -3.95036  -2.66673
  H  -0.38419  -2.82026  -1.51853
  H   2.39361  -2.84196  -1.37853
  H   3.15591  -4.04476  -2.37863
  H   1.85561  -5.67796  -0.57693
  H   0.11691  -5.39376  -0.57533
  H   0.11841  -1.46186  -3.26513
  H   2.41151  -1.53586  -3.16303
  H   0.03741  -2.86106  -4.43333
  H   2.37041  -2.86336  -4.35303
  H   0.13151  -3.44456   0.55417
  H   1.91951  -3.24926   0.65517
  H   2.04921  -5.38686   1.77847
  H   0.29871  -5.53346   1.94057
  H   2.03871  -6.02616  -2.95263
  H   0.30451  -6.23826  -2.75483
  H   0.95501  -5.18176  -4.01793
  H   1.29721  -4.32446   4.12537
  H   0.44351  -3.14696   3.11837
  H   2.16191  -3.28886   3.14137
  N   1.10401  -4.33396  -2.02563
  B   6.02111  -2.01436  -2.48553
  F   6.76431  -1.02806  -1.87443
  F   6.27671  -3.19416  -1.79013
  F   6.24751  -2.03356  -3.88323
  F   4.67781  -1.69776  -2.30123
