  70
# Step 89, RM=BF4[389] (5 atoms), C9H20N[422] (30 atoms), C9H20N[456] (30 atoms), BF4[18] (5 atoms)
  B  -0.01219   0.02003  -0.02372
  F  -0.83899  -0.83187  -0.70072
  F  -0.73119   0.72293   0.90218
  F   0.93271  -0.73247   0.76308
  F   0.64441   0.83003  -0.95102
  C  -0.87479  -3.16287   3.96728
  C  -3.16369  -2.72427   3.43418
  C  -1.71079  -2.92477   1.57898
  C  -1.69689  -2.99867   5.29038
  C  -3.20159  -3.03757   4.94948
  C  -1.60349  -4.47827   1.19278
  C  -1.21599  -4.82497  -0.26432
  C  -1.59019  -1.10077   3.00948
  C  -2.15879  -4.32767  -1.33902
  H  -0.84119  -4.24247   3.82098
  H   0.17491  -2.87247   4.01018
  H  -3.53179  -3.63777   2.96698
  H  -3.87049  -2.02477   2.98798
  H  -2.57339  -2.48917   1.07478
  H  -0.78039  -2.50327   1.19818
  H  -3.58879  -4.00977   5.25438
  H  -3.68179  -2.18747   5.43418
  H  -1.64129  -3.82367   6.00058
  H  -1.45469  -2.05247   5.77448
  H  -2.57249  -4.91767   1.42968
  H  -0.78659  -4.94557   1.74268
  H  -0.23969  -4.43007  -0.54512
  H  -1.00709  -5.88107  -0.43522
  H  -2.10029  -0.49367   2.26168
  H  -0.52239  -0.93277   2.86938
  H  -1.87689  -0.72547   3.99188
  H  -2.36509  -3.26807  -1.18782
  H  -3.09879  -4.87937  -1.33242
  H  -1.71729  -4.37187  -2.33462
  N  -1.77409  -2.53317   2.97338
  C   3.00191   1.25613   2.66168
  C   2.55951   2.74453   1.00698
  C   3.92611   0.81453   0.46658
  C   2.34351   2.32563   3.50928
  C   1.88841   3.25183   2.34658
  C   4.20661   1.34703  -0.96592
  C   4.00361   0.36343  -2.15292
  C   4.78641   2.71693   1.79058
  C   4.64211  -0.98767  -1.81632
  H   3.66341   0.74483   3.36108
  H   2.27311   0.53533   2.29098
  H   2.92621   3.57703   0.40668
  H   1.89991   2.12433   0.39998
  H   3.03741   0.18803   0.39008
  H   4.73561   0.15643   0.78208
  H   2.92821   2.78263   4.30758
  H   1.41231   1.89673   3.87958
  H   0.80131   3.25313   2.42498
  H   2.17561   4.29473   2.48088
  H   3.56951   2.18183  -1.25812
  H   5.22491   1.73093  -0.90292
  H   4.46041   0.76023  -3.05952
  H   2.94601   0.23943  -2.38582
  H   4.67421   3.30963   2.69848
  H   5.57751   2.06203   2.15568
  H   5.14121   3.35783   0.98338
  H   5.61601  -0.70387  -1.41742
  H   4.09451  -1.56127  -1.06852
  H   4.96651  -1.54967  -2.69222
  N   3.61211   1.87323   1.42178
  B   2.90231  -1.98327   4.94528
  F   4.21241  -2.30457   4.99878
  F   2.16041  -2.95597   5.52288
  F   2.71001  -0.77227   5.53068
  F   2.60521  -1.88377   3.61088
