  76
# Step 57, RM=CF3O3S[183] (8 atoms), CF3O3S[220] (8 atoms), C9H20N[133] (30 atoms), C9H20N[218] (30 atoms)
  C  -0.81272   0.37593  -0.24895
  F  -1.72702   0.48223   0.71750
  F  -1.35662  -0.37547  -1.16804
  F  -0.64702   1.65703  -0.62041
  O   0.55718  -1.75937   0.33230
  O   1.03688   0.24833   1.52101
  O   1.76058  -0.08377  -0.84870
  S   0.84088  -0.39007   0.22648
  C   2.65268  -6.71267   4.50496
  F   2.68748  -7.97007   4.90666
  F   3.10008  -5.94037   5.49966
  F   3.59278  -6.67477   3.59546
  O   0.53888  -7.17577   3.06450
  O   0.38608  -5.71957   5.10996
  O   1.47838  -4.89697   3.06514
  S   1.01678  -6.05577   3.85896
  C  -2.34092  -5.81577  -0.17128
  C  -2.11082  -3.62537  -0.68569
  C  -1.37712  -4.31987   1.64634
  C  -2.51832  -4.31607  -1.98902
  C  -2.83872  -5.77817  -1.63722
  C  -2.77802  -4.10347   2.32727
  C  -2.82622  -4.51027   3.78546
  C  -0.14432  -5.01497  -0.38381
  C  -2.99462  -6.04767   3.96916
  H  -1.61042  -2.65707  -0.68905
  H  -3.32742  -5.68017   0.27210
  H  -2.05572  -6.75767   0.29750
  H  -3.00782  -3.27477  -0.17519
  H  -1.00302  -5.21577   2.14179
  H  -0.66182  -3.51137   1.79752
  H  -3.90152  -6.00097  -1.73154
  H  -3.40062  -3.81907  -2.39227
  H  -1.71732  -4.18597  -2.71664
  H  -2.23632  -6.42997  -2.26994
  H  -3.66632  -4.58747   1.92133
  H  -3.03052  -3.05187   2.19133
  H  -3.53782  -3.97057   4.41036
  H  -1.89002  -4.12657   4.19086
  H   0.31998  -5.91037   0.02951
  H   0.42068  -4.11167  -0.15404
  H  -0.21552  -5.16377  -1.46127
  H  -1.99122  -6.45317   3.83886
  H  -3.71462  -6.47007   3.26826
  H  -3.20152  -6.46357   4.95526
  N  -1.48552  -4.67817   0.16927
  C   2.68068  -3.35587  -4.66908
  C   1.21948  -2.29127  -3.34260
  C   3.47898  -2.98787  -2.39796
  C   1.59598  -2.86727  -5.65291
  C   0.57948  -2.21237  -4.75608
  C   3.05818  -4.40807  -1.89084
  C   3.71578  -4.76977  -0.48438
  C   3.28068  -1.17417  -4.00677
  C   3.61678  -6.24957  -0.28591
  H   0.98728  -1.39727  -2.76377
  H   0.71828  -3.12227  -2.84633
  H   3.62358  -3.44947  -5.20799
  H   2.47118  -4.37237  -4.33601
  H   4.54978  -2.99827  -2.60148
  H   3.35088  -2.24277  -1.61281
  H   1.94398  -2.16877  -6.41380
  H   1.18328  -3.75877  -6.12525
  H   0.47348  -1.17987  -5.08908
  H  -0.39752  -2.69577  -4.75486
  H   3.29098  -5.19887  -2.60403
  H   1.96828  -4.40107  -1.90708
  H   3.19818  -4.24697   0.31989
  H   4.78528  -4.56067  -0.50893
  H   3.58858  -0.45687  -3.24607
  H   2.60408  -0.72797  -4.73553
  H   4.15658  -1.39697  -4.61614
  H   4.26168  -6.85167  -0.92605
  H   4.05798  -6.57097   0.65759
  H   2.63698  -6.69737  -0.45169
  N   2.64948  -2.44467  -3.52851
