  76
# Step 160, RM=CF3O3S[34] (8 atoms), CF3O3S[43] (8 atoms), C9H20N[381] (30 atoms), C9H20N[404] (30 atoms)
  C   0.50774   0.79438   0.12238
  F  -0.27566   1.83338   0.22328
  F   1.34394   1.02988  -0.89422
  F   1.31624   0.82118   1.18728
  O  -1.78956  -0.57292   0.58168
  O   0.30884  -1.86722   0.48998
  O  -0.66496  -0.88392  -1.56252
  S  -0.53236  -0.82192  -0.10682
  C   4.57494   4.03448  -1.08422
  F   4.28054   3.03138  -0.33862
  F   3.50644   4.76618  -1.15922
  F   4.81354   3.50028  -2.26102
  O   7.03824   4.02138  -0.25162
  O   5.45414   5.53408   0.82858
  O   6.25614   6.04388  -1.38532
  S   6.01054   5.02158  -0.39352
  C   3.53084  -1.51722  -4.80162
  C   3.80624   0.05538  -3.04582
  C   2.03184  -1.64872  -2.87642
  C   4.39924  -0.33422  -5.40752
  C   4.75284   0.53928  -4.14872
  C   2.74094  -2.96892  -2.44272
  C   2.06844  -3.62522  -1.28132
  C   1.77774   0.07128  -4.44022
  C   2.47324  -5.10682  -1.29972
  H   2.89824  -1.70582  -5.66892
  H   4.14344  -2.39002  -4.57572
  H   3.37604   0.94088  -2.57792
  H   4.34414  -0.39612  -2.21222
  H   1.80334  -1.08882  -1.96962
  H   1.07834  -1.92742  -3.32502
  H   3.84314   0.09678  -6.24002
  H   4.65634   1.61258  -4.31262
  H   5.79274   0.37738  -3.86482
  H   5.30504  -0.74122  -5.85712
  H   3.82984  -2.96332  -2.39292
  H   2.52854  -3.64002  -3.27492
  H   0.98194  -3.54222  -1.30722
  H   2.23124  -3.19772  -0.29192
  H   1.09914  -0.49872  -5.07482
  H   2.31164   0.75568  -5.09942
  H   1.27284   0.75808  -3.76092
  H   3.51864  -5.22622  -1.01532
  H   2.43844  -5.59042  -2.27602
  H   1.85864  -5.75712  -0.67722
  N   2.80034  -0.78472  -3.77292
  C   5.87664  -6.45502   0.74798
  C   7.46834  -5.41692   2.03338
  C   5.10514  -4.64942   2.30858
  C   8.23264  -6.56792   1.41848
  C   7.20784  -7.23632   0.44598
  C   5.25864  -3.41202   1.39568
  C   4.27714  -2.34122   1.91118
  C   5.82774  -6.80882   3.04538
  C   4.07384  -1.23122   0.88288
  H   4.93874  -7.00922   0.71258
  H   5.65404  -5.74802  -0.05122
  H   7.81214  -5.27802   3.05838
  H   7.68864  -4.56332   1.39228
  H   4.08474  -5.03272   2.31178
  H   5.17954  -4.36792   3.35898
  H   7.58714  -7.03642  -0.55622
  H   7.20474  -8.31372   0.61068
  H   9.19444  -6.44762   0.91988
  H   8.48244  -7.29182   2.19418
  H   6.19074  -2.86142   1.26848
  H   4.89994  -3.59952   0.38358
  H   4.62254  -1.93252   2.86078
  H   3.29554  -2.79282   2.05488
  H   4.77774  -7.07132   3.17458
  H   6.22954  -7.81592   2.93428
  H   6.11714  -6.53232   4.05928
  H   5.01594  -0.69772   0.75658
  H   3.24194  -0.66592   1.30288
  H   3.73504  -1.71792  -0.03172
  N   6.04924  -5.77372   2.02358
