  70
# Step 451, RM=BF4[124] (5 atoms), C9H20N[240] (30 atoms), C9H20N[439] (30 atoms), BF4[323] (5 atoms)
  B   0.04047   0.01994  -0.02972
  F   0.20297  -1.28366  -0.52012
  F   0.19217   0.94844  -1.04652
  F   0.88007   0.24454   1.09448
  F  -1.29823   0.07934   0.48908
  C   1.38897   2.94474   2.72298
  C   1.20137   5.00034   1.79508
  C   3.48167   4.11084   2.26208
  C  -0.14893   4.37804   1.65198
  C  -0.14043   3.07284   2.51508
  C   3.63217   5.00454   3.46838
  C   5.01927   5.02184   4.20488
  C   2.25597   3.17434   0.51658
  C   4.94767   5.79554   5.50588
  H   1.29527   5.54904   2.73228
  H   1.60517   1.87994   2.63728
  H   1.66957   3.04444   3.77148
  H   1.42127   5.71844   1.00508
  H   3.98217   3.16544   2.47148
  H   4.11327   4.49854   1.46288
  H  -0.78703   3.10064   3.39218
  H  -0.46083   4.27604   0.61258
  H  -0.96103   4.98574   2.05108
  H  -0.65323   2.22024   2.06978
  H   3.52387   6.04054   3.14748
  H   2.85977   4.80464   4.21108
  H   5.75567   5.59744   3.64418
  H   5.45897   4.04674   4.41478
  H   2.76837   3.86394  -0.15432
  H   2.96667   2.36034   0.65898
  H   1.31237   2.85724   0.07258
  H   4.06687   5.65304   6.13188
  H   5.84817   5.54044   6.06448
  H   5.03897   6.87754   5.41098
  N   2.08877   3.84804   1.78628
  C  -4.92963  -0.76096  -2.71732
  C  -2.92653   0.42684  -2.35112
  C  -2.87783  -1.66756  -3.64452
  C  -5.27643   0.37864  -1.69722
  C  -3.99483   1.26484  -1.69802
  C  -1.36053  -1.65896  -3.59872
  C  -0.83913  -2.03756  -5.05072
  C  -3.18963  -1.70406  -1.35902
  C   0.66317  -2.17576  -5.27062
  H  -5.23113  -0.46816  -3.72302
  H  -5.48413  -1.67356  -2.49852
  H  -2.77073   0.92224  -3.30942
  H  -1.98033   0.44104  -1.81012
  H  -3.32953  -1.30876  -4.56942
  H  -3.21313  -2.70376  -3.60162
  H  -4.20653   2.16234  -2.27912
  H  -3.84763   1.54314  -0.65452
  H  -6.13813   0.94444  -2.05122
  H  -5.57313   0.02774  -0.70882
  H  -0.96923  -2.34966  -2.85182
  H  -0.99553  -0.66196  -3.35202
  H  -1.24083  -1.43616  -5.86622
  H  -1.24973  -3.01976  -5.28482
  H  -2.11023  -1.77846  -1.22652
  H  -3.42613  -1.32706  -0.36402
  H  -3.46463  -2.75166  -1.48122
  H   1.07087  -1.19046  -5.04502
  H   0.95257  -2.92816  -4.53692
  H   0.78407  -2.41396  -6.32742
  N  -3.46923  -0.91206  -2.54152
  B   5.59967   0.26644   2.72298
  F   5.45317   0.25314   1.35218
  F   6.32937   1.35684   3.08468
  F   4.32927   0.36824   3.26368
  F   6.23287  -0.87726   3.17288
