  70
# Step 440, RM=BF4[315] (5 atoms), C9H20N[105] (30 atoms), C9H20N[445] (30 atoms), BF4[68] (5 atoms)
  B  -0.01775   0.00212  -0.00436
  F   1.10795   0.60422   0.44824
  F   0.19355  -1.33728  -0.27346
  F  -0.91855   0.13432   1.03764
  F  -0.37285   0.59752  -1.20996
  C  -3.16845   3.99952  -1.07706
  C  -1.71805   3.76972   0.78254
  C  -4.17215   4.08482   1.20684
  C  -0.89065   3.70322  -0.46946
  C  -1.81485   3.67082  -1.67496
  C  -4.15575   5.58592   1.47754
  C  -5.43015   6.02032   2.30904
  C  -3.32525   2.00882   0.15584
  C  -5.56135   7.56852   2.25354
  H  -1.72295   4.77822   1.19614
  H  -1.42475   2.98272   1.47724
  H  -3.23495   5.07532  -1.23956
  H  -3.92985   3.53072  -1.70046
  H  -5.13515   3.78662   0.79234
  H  -4.18325   3.46712   2.10484
  H  -1.90555   2.65852  -2.06866
  H  -1.47735   4.33222  -2.47296
  H  -0.39865   4.67472  -0.51636
  H  -0.12465   2.93472  -0.36606
  H  -4.04415   6.04922   0.49724
  H  -3.29915   5.87382   2.08714
  H  -5.32005   5.66802   3.33464
  H  -6.39155   5.69842   1.90884
  H  -4.33245   1.81842  -0.21476
  H  -2.57875   1.58042  -0.51306
  H  -3.03445   1.36862   0.98874
  H  -6.41135   7.83182   2.88294
  H  -4.71585   8.22002   2.47424
  H  -5.81735   7.86862   1.23734
  N  -3.10745   3.50752   0.32524
  C   4.16385   1.75202  -3.36846
  C   2.04825   1.01772  -2.68156
  C   2.16395   3.00852  -4.11726
  C   3.09025   0.14412  -2.11016
  C   4.40335   0.35272  -2.83236
  C   2.25585   4.23632  -3.03266
  C   1.41585   5.52452  -3.42166
  C   2.70255   0.93162  -5.09346
  C   1.60535   6.84442  -2.65886
  H   1.82355   1.78702  -1.94276
  H   4.31585   2.53762  -2.62836
  H   4.82055   2.10452  -4.16386
  H   1.09575   0.61022  -3.02026
  H   1.09895   2.81552  -4.24616
  H   2.68305   3.30592  -5.02836
  H   2.67765  -0.86228  -2.18076
  H   4.44775  -0.40098  -3.61856
  H   3.16995   0.34982  -1.04266
  H   5.26775   0.36642  -2.16856
  H   3.25945   4.63062  -2.87316
  H   1.85815   3.90602  -2.07296
  H   1.80235   5.65882  -4.43196
  H   0.38785   5.17532  -3.51846
  H   3.00115  -0.11408  -5.01956
  H   3.38805   1.42782  -5.78056
  H   1.74005   0.83492  -5.59586
  H   2.65065   6.82832  -2.35036
  H   1.43045   7.72532  -3.27666
  H   0.99625   6.80092  -1.75596
  N   2.69875   1.71932  -3.79566
  B  -2.14895  -5.75628   1.52294
  F  -2.25005  -5.65538   2.92234
  F  -1.68595  -4.50468   1.12734
  F  -3.34235  -5.97198   0.86774
  F  -1.27155  -6.72418   1.11964
