  70
# Step 189, RM=BF4[236] (5 atoms), C9H20N[159] (30 atoms), C9H20N[372] (30 atoms), BF4[25] (5 atoms)
  B  -0.02705   0.00548   0.03303
  F  -0.29015  -0.47909  -1.21847
  F   1.14085  -0.60644   0.38793
  F  -1.03385  -0.32219   0.92603
  F   0.19855   1.40459  -0.11427
  C  -1.46115  -5.25240  -0.62257
  C  -2.37735  -4.00930   1.11143
  C  -3.81575  -4.50920  -0.79777
  C  -0.28285  -4.86140   0.25343
  C  -0.95415  -4.30660   1.50993
  C  -4.56095  -5.76780  -0.23537
  C  -6.00955  -5.99280  -0.74537
  C  -2.05615  -2.89800  -0.95747
  C  -7.17965  -5.27830   0.01493
  H  -2.80555  -4.86590   1.63193
  H  -2.92055  -3.18150   1.56733
  H  -1.16645  -5.34220  -1.66807
  H  -1.83765  -6.23620  -0.34267
  H  -3.68655  -4.78460  -1.84447
  H  -4.48465  -3.65780  -0.67147
  H  -0.87855  -5.03570   2.31663
  H   0.29965  -4.10630  -0.27437
  H  -0.48215  -3.35030   1.73513
  H   0.36765  -5.68780   0.53983
  H  -3.94655  -6.63700  -0.47037
  H  -4.55745  -5.66930   0.85023
  H  -6.17685  -5.73110  -1.79017
  H  -6.17525  -7.05380  -0.93187
  H  -1.01855  -2.61740  -0.77677
  H  -2.08785  -2.85090  -2.04597
  H  -2.66705  -2.02650  -0.72197
  H  -7.31295  -5.67920   1.01973
  H  -7.09995  -4.19780   0.13453
  H  -8.09615  -5.37820  -0.56647
  N  -2.44045  -4.19310  -0.32647
  C   4.52285  -2.32100  -3.11607
  C   3.33095  -0.73010  -2.30017
  C   3.60135  -2.65460  -0.89927
  C   5.48025  -1.28810  -2.72947
  C   4.73005  -0.13440  -2.08137
  C   3.29755  -4.18690  -0.70227
  C   3.39465  -4.61480   0.81543
  C   2.18715  -2.72380  -2.91527
  C   3.38935  -6.16970   0.98983
  H   3.03995  -0.40870  -3.30027
  H   2.47895  -0.32420  -1.75467
  H   4.27015  -2.36470  -4.17547
  H   4.86155  -3.33920  -2.92437
  H   2.89895  -2.12710  -0.25387
  H   4.59805  -2.41430  -0.52917
  H   4.71325   0.85860  -2.53047
  H   6.30245  -1.63470  -2.10337
  H   6.09955  -0.95200  -3.56117
  H   5.00695   0.00040  -1.03577
  H   3.90765  -4.85710  -1.30777
  H   2.27835  -4.48850  -0.94417
  H   2.50295  -4.11540   1.19433
  H   4.30415  -4.17630   1.22613
  H   2.40495  -3.78400  -3.04467
  H   1.31945  -2.69030  -2.25637
  H   1.93585  -2.39230  -3.92277
  H   2.97985  -6.50010   1.94443
  H   2.88665  -6.73190   0.20283
  H   4.43285  -6.48480   0.99633
  N   3.37815  -2.19420  -2.24657
  B  -0.64825  -3.78930  -4.91477
  F  -1.78045  -4.15400  -4.19507
  F   0.57205  -4.42190  -4.48787
  F  -0.87015  -4.07390  -6.18537
  F  -0.49215  -2.41720  -4.72187
