  70
# Step 409, RM=BF4[163] (5 atoms), C9H20N[132] (30 atoms), C9H20N[416] (30 atoms), BF4[46] (5 atoms)
  B   0.03460  -0.01383   0.02919
  F   1.02670  -0.64728  -0.67596
  F  -1.17090  -0.61870  -0.31626
  F  -0.09130   1.29159  -0.44603
  F   0.21580  -0.01774   1.42165
  C   5.22960   2.16102  -2.46478
  C   4.46470   0.13775  -1.54549
  C   4.24120   2.20066  -0.31989
  C   4.90570  -0.21353  -2.95446
  C   5.39920   1.09089  -3.61323
  C   3.18750   1.79598   0.69614
  C   3.45670   2.35202   2.20869
  C   2.87290   1.92548  -2.29877
  C   2.18240   2.23819   3.09188
  H   3.55310  -0.33007  -1.17367
  H   5.36740  -0.03638  -0.95988
  H   6.08430   2.29407  -1.80154
  H   5.04990   3.14824  -2.89049
  H   5.18850   2.12062   0.21339
  H   4.13260   3.28040  -0.42217
  H   6.46190   1.00710  -3.84093
  H   4.87460   1.21002  -4.56120
  H   4.08180  -0.66768  -3.50485
  H   5.74060  -0.90503  -2.84092
  H   2.15240   2.06970   0.49163
  H   3.23080   0.70756   0.73585
  H   3.62540   3.41244   2.02124
  H   4.39830   2.08464   2.68828
  H   2.66130   2.95015  -2.60436
  H   2.86830   1.35161  -3.22546
  H   1.97040   1.56950  -1.80183
  H   2.24040   2.82353   4.00955
  H   1.24510   2.48279   2.59211
  H   1.97870   1.18475   3.28385
  N   4.13690   1.59720  -1.64368
  C  -3.77510   2.61226  -3.96703
  C  -3.97470   3.84941  -2.10078
  C  -4.27060   1.38661  -1.94237
  C  -3.54370   4.00837  -4.41232
  C  -3.52000   4.83654  -3.15644
  C  -3.79760   0.04269  -2.54368
  C  -4.69920  -1.08186  -1.99697
  C  -2.12870   2.41107  -2.19392
  C  -4.16210  -2.52013  -2.28922
  H  -3.09690   1.99493  -4.55618
  H  -4.78400   2.30848  -4.24615
  H  -3.77830   4.07943  -1.05359
  H  -5.06160   3.78732  -2.04689
  H  -4.22040   1.49771  -0.85921
  H  -5.34540   1.47760  -2.09924
  H  -2.49030   5.15599  -2.99585
  H  -4.11940   5.74510  -3.21423
  H  -2.64120   4.14918  -5.00724
  H  -4.38170   4.24782  -5.06690
  H  -3.86440   0.00005  -3.63080
  H  -2.75280  -0.16064  -2.30879
  H  -5.69910  -0.95619  -2.41235
  H  -4.66550  -1.07032  -0.90755
  H  -1.91150   2.38444  -1.12612
  H  -1.62940   3.25586  -2.66835
  H  -1.54830   1.57207  -2.57771
  H  -4.35980  -2.80466  -3.32270
  H  -4.68440  -3.21933  -1.63619
  H  -3.09480  -2.59768  -2.08189
  N  -3.51910   2.54251  -2.52228
  B   0.03730   1.95245  -5.07535
  F  -0.45160   2.43405  -6.28504
  F  -0.69610   0.84945  -4.70563
  F   0.01930   2.96135  -4.08335
  F   1.39570   1.60265  -5.29494
