  76
# Step 666, RM=CF3O3S[135] (8 atoms), CF3O3S[114] (8 atoms), C9H20N[80] (30 atoms), C9H20N[97] (30 atoms)
  C   0.74844   0.10836   0.53932
  F   0.51424   0.60874   1.70312
  F   1.28184  -1.04570   0.68292
  F   1.65754   0.87503   0.03412
  O  -0.24586  -0.84810  -1.63658
  O  -1.74876  -0.86753   0.20152
  O  -1.12636   1.29373  -0.80238
  S  -0.76926  -0.08962  -0.51948
  C  -2.52716   0.71233   5.54642
  F  -1.74676  -0.26457   5.11622
  F  -3.21426   1.11067   4.48242
  F  -3.48546   0.16452   6.28322
  O  -2.48286   3.13171   6.62052
  O  -0.54266   2.54191   5.27322
  O  -0.95956   1.39769   7.39302
  S  -1.51766   2.10891   6.27142
  C   1.04714   0.37749  -5.60188
  C   2.50354  -0.39390  -3.92298
  C   2.03824   1.97751  -4.19588
  C   2.25994  -1.68591  -4.67468
  C   1.33924  -1.14861  -5.83508
  C   3.31764   2.53561  -3.41528
  C   3.06404   3.80961  -2.73278
  C   3.40554   0.95151  -5.77118
  C   2.00154   3.79571  -1.64328
  H   0.21844   0.53749  -4.91208
  H   3.53694  -0.38300  -3.57648
  H   0.80534   0.93031  -6.50968
  H   1.82564  -0.36543  -3.06988
  H   1.68564   2.71801  -4.91378
  H   1.18334   1.94501  -3.52048
  H   1.83854  -1.32764  -6.78738
  H   3.16254  -2.01497  -5.18958
  H   1.78634  -2.46680  -4.07968
  H   0.40094  -1.69957  -5.77178
  H   4.15894   2.65091  -4.09868
  H   3.69414   1.83231  -2.67248
  H   3.97484   4.14611  -2.23748
  H   2.73194   4.45281  -3.54758
  H   4.42104   0.95800  -5.37528
  H   3.52554   0.04167  -6.35928
  H   3.19224   1.78441  -6.44108
  H   2.08584   2.93541  -0.97938
  H   1.03874   3.58951  -2.11068
  H   2.10604   4.65891  -0.98598
  N   2.28224   0.74568  -4.86938
  C  -4.00156  -2.02998   2.66692
  C  -3.59326  -3.57526   4.28452
  C  -2.15776  -3.74363   2.32852
  C  -5.14156  -1.89797   3.59912
  C  -4.81936  -2.80634   4.78132
  C  -1.00036  -2.85416   2.83762
  C   0.44054  -3.41542   2.67752
  C  -4.35346  -4.28770   2.04862
  C   1.59114  -2.50297   3.13862
  H  -2.71356  -3.29527   4.86392
  H  -3.69976  -4.59439   4.65612
  H  -3.29646  -1.28522   3.03592
  H  -4.19436  -1.72194   1.63932
  H  -2.14166  -3.82787   1.24192
  H  -1.85516  -4.77761   2.49402
  H  -5.30366  -0.88479   3.96692
  H  -6.02166  -2.12319   2.99672
  H  -4.77506  -2.25641   5.72132
  H  -5.63816  -3.51489   4.90622
  H  -0.95476  -1.93254   2.25742
  H  -1.02656  -2.64341   3.90672
  H   0.68904  -3.58569   1.63002
  H   0.57764  -4.26652   3.34462
  H  -5.42376  -4.20998   2.23962
  H  -4.14626  -4.15332   0.98692
  H  -4.11796  -5.33675   2.22802
  H   2.48584  -2.86011   2.62872
  H   1.42444  -1.42780   3.07302
  H   1.75504  -2.73341   4.19122
  N  -3.50826  -3.39336   2.87622
