  76
# Step 103, RM=CF3O3S[487] (8 atoms), CF3O3S[49] (8 atoms), C9H20N[327] (30 atoms), C9H20N[345] (30 atoms)
  C  -0.54030  -0.63403  -0.34066
  F  -0.92550  -0.41973  -1.55178
  F  -1.63570  -0.74323   0.34077
  F  -0.03990  -1.84393  -0.35648
  O  -0.04040   1.91277  -0.10418
  O   1.88810   0.30867  -0.22874
  O   0.44040   0.44737   1.74167
  S   0.60180   0.68737   0.35337
  C  -4.35490  -1.73493  -3.03397
  F  -5.16160  -0.78023  -2.49687
  F  -5.07130  -2.90143  -3.00927
  F  -3.30550  -1.94303  -2.20477
  O  -2.56470  -0.67643  -4.74907
  O  -4.90840  -0.79803  -5.39367
  O  -3.55130  -2.79413  -5.17827
  S  -3.78540  -1.44683  -4.77407
  C   2.60860   3.23587   2.13753
  C   4.16120   4.72237   1.31863
  C   5.01930   2.78947   2.76653
  C   1.79470   4.00827   1.07283
  C   2.82120   5.03627   0.62763
  C   5.06980   3.62937   4.05893
  C   6.09480   3.17577   5.10623
  C   4.26930   2.39117   0.59973
  C   6.08770   4.06327   6.32663
  H   2.24180   2.22577   2.32023
  H   2.57870   3.78677   3.07763
  H   4.15410   5.36267   2.20073
  H   5.04340   4.85187   0.69173
  H   4.89920   1.71917   2.93433
  H   6.00300   2.92327   2.31643
  H   2.41150   6.02817   0.81823
  H   3.07830   5.13807  -0.42677
  H   0.86590   4.42607   1.46133
  H   1.52670   3.49477   0.14953
  H   4.08970   3.55307   4.52983
  H   5.36670   4.66457   3.89043
  H   7.05050   3.43767   4.65203
  H   6.02700   2.12717   5.39623
  H   4.12830   1.35577   0.90983
  H   5.23610   2.57797   0.13213
  H   3.63030   2.52637  -0.27297
  H   6.31770   5.12257   6.21253
  H   5.08240   3.95357   6.73323
  H   6.84540   3.68007   7.01013
  N   4.05240   3.29477   1.74353
  C  -4.66190   2.21797   2.67473
  C  -3.54960   4.19517   1.95982
  C  -3.44710   2.14017   0.45725
  C  -5.36770   3.43527   3.23978
  C  -4.23640   4.48457   3.28811
  C  -4.59100   2.47557  -0.45673
  C  -4.12810   2.35397  -1.91965
  C  -2.24520   2.16967   2.50859
  C  -5.32240   2.39837  -2.87208
  H  -4.40570   1.52007   3.47184
  H  -5.31700   1.60607   2.05475
  H  -4.28300   4.63937   1.28689
  H  -2.59310   4.70707   1.85436
  H  -2.56230   2.59597   0.01281
  H  -3.21730   1.07487   0.43406
  H  -6.09420   3.97337   2.63089
  H  -5.71740   3.19657   4.24419
  H  -3.44150   4.39047   4.02799
  H  -4.59000   5.50327   3.44693
  H  -4.97850   3.49047  -0.36766
  H  -5.53360   1.94857  -0.30852
  H  -3.46370   3.18907  -2.14152
  H  -3.53870   1.45887  -2.11836
  H  -1.32370   2.50617   2.03348
  H  -2.16070   1.09807   2.32796
  H  -2.14360   2.34327   3.57988
  H  -6.00780   1.68227  -2.41883
  H  -5.05860   1.95007  -3.82996
  H  -5.62970   3.43067  -3.03967
  N  -3.45690   2.68547   1.89020
