  76
# Step 691, RM=CF3O3S[8] (8 atoms), CF3O3S[383] (8 atoms), C9H20N[260] (30 atoms), C9H20N[294] (30 atoms)
  C  -0.35416   0.33381  -0.78010
  F  -0.43236   1.68111  -0.71710
  F  -1.54846  -0.02199  -1.02050
  F   0.33744   0.05731  -1.88350
  O   0.68224  -1.73469   0.36120
  O   1.45594   0.51311   1.12740
  O  -0.67036  -0.29879   1.78120
  S   0.37394  -0.38339   0.80610
  C  -2.47876   7.12531  -0.16110
  F  -3.64056   6.51921  -0.07970
  F  -1.95036   7.27891   0.98520
  F  -2.72196   8.34541  -0.63580
  O  -1.73356   6.32311  -2.54400
  O  -0.03066   7.02271  -1.06620
  O  -1.34726   4.88751  -0.70160
  S  -1.22176   6.20781  -1.23100
  C   5.20704  -2.98779   0.74070
  C   4.23974  -3.50539   2.73400
  C   6.06964  -4.95229   1.98910
  C   3.99854  -1.99189   0.81770
  C   3.63634  -2.17809   2.23910
  C   7.28644  -4.37389   2.75300
  C   8.50064  -5.29089   2.94900
  C   3.95134  -4.90079   0.79910
  C   8.26974  -6.37069   4.05960
  H   3.58234  -4.13629   3.33210
  H   4.99074  -3.25729   3.48400
  H   6.02964  -2.40609   1.15670
  H   5.56044  -3.14039  -0.27910
  H   6.48144  -5.48829   1.13400
  H   5.62524  -5.73249   2.60710
  H   3.10974  -2.16259   0.21040
  H   4.37554  -1.00359   0.55470
  H   4.03554  -1.34349   2.81540
  H   2.56504  -2.19379   2.43940
  H   6.96444  -4.17149   3.77450
  H   7.71644  -3.42659   2.42750
  H   8.85514  -5.78699   2.04540
  H   9.36324  -4.70659   3.26920
  H   2.95454  -4.46019   0.77690
  H   3.61514  -5.85039   1.21560
  H   4.22154  -4.98599  -0.25340
  H   8.01544  -5.90139   5.00990
  H   9.17854  -6.96699   4.14120
  H   7.46224  -7.04019   3.76340
  N   4.93604  -4.09839   1.61300
  C   1.95864  -2.32509  -3.46540
  C   1.72164  -4.52679  -4.01430
  C  -0.08846  -2.99779  -4.77410
  C   3.34304  -2.86919  -3.21660
  C   3.14434  -4.35399  -3.36080
  C  -0.87906  -2.80829  -3.48280
  C  -2.36836  -2.77539  -3.50050
  C   2.03974  -3.03229  -5.80860
  C  -3.04206  -3.22439  -2.20560
  H   1.05564  -4.81669  -3.20160
  H   1.92184  -1.25229  -3.65440
  H   1.41014  -2.51919  -2.54360
  H   1.63094  -5.30329  -4.77380
  H  -0.24646  -2.16249  -5.45630
  H  -0.45516  -3.88919  -5.28320
  H   3.32054  -4.76639  -2.36730
  H   3.79034  -2.56719  -2.26960
  H   4.07064  -2.53999  -3.95840
  H   3.89354  -4.72269  -4.06130
  H  -0.60796  -1.88089  -2.97820
  H  -0.51626  -3.50819  -2.73010
  H  -2.60336  -1.71379  -3.57710
  H  -2.74836  -3.30079  -4.37660
  H   1.96684  -2.03809  -6.24950
  H   3.10984  -3.23449  -5.76120
  H   1.73094  -3.71509  -6.60010
  H  -4.12386  -3.10509  -2.26380
  H  -2.84766  -4.26269  -1.93690
  H  -2.66296  -2.70179  -1.32740
  N   1.34894  -3.16489  -4.44490
