  70
# Step 392, RM=BF4[24] (5 atoms), C9H20N[18] (30 atoms), C9H20N[272] (30 atoms), BF4[496] (5 atoms)
  B  -0.04228   0.02322  -0.00637
  F   1.25812  -0.29648  -0.33427
  F  -0.19158   1.37382  -0.26747
  F  -0.16918  -0.34678   1.31343
  F  -0.87328  -0.74378  -0.70807
  C   2.96852  -2.51908  -1.53547
  C   3.04322  -4.72448  -1.10122
  C   1.50962  -3.38068   0.22442
  C   4.25682  -4.50668  -2.03387
  C   4.17692  -3.02928  -2.38349
  C   0.28182  -3.61878  -0.66760
  C  -0.91728  -3.82798   0.18520
  C   3.85812  -3.22388   0.57277
  C  -2.05348  -4.11998  -0.83004
  H   3.20442  -1.52568  -1.15397
  H   2.07142  -2.40718  -2.14437
  H   3.11972  -5.49268  -0.33166
  H   2.19402  -5.02428  -1.71527
  H   1.36962  -2.35298   0.55937
  H   1.49492  -3.94048   1.15957
  H   4.24662  -5.10678  -2.94378
  H   5.22202  -4.60488  -1.53700
  H   3.92102  -2.73388  -3.40099
  H   5.09402  -2.54258  -2.05156
  H   0.43392  -4.52898  -1.24766
  H   0.21212  -2.81698  -1.40270
  H  -0.68788  -4.65608   0.85578
  H  -1.11308  -2.89448   0.71291
  H   4.85822  -3.25158   0.14032
  H   3.76002  -2.24438   1.04077
  H   3.88562  -4.00068   1.33697
  H  -1.77328  -4.96128  -1.46396
  H  -2.96358  -4.27138  -0.24962
  H  -2.19898  -3.34168  -1.57915
  N   2.81502  -3.44128  -0.45299
  C   3.82652  -0.20298   3.48815
  C   2.97932   1.91632   3.45710
  C   5.31812   1.68082   2.91887
  C   2.34272  -0.47728   3.52817
  C   1.73842   0.94982   3.64631
  C   6.01232   1.76382   4.26757
  C   7.39742   2.52802   4.32087
  C   3.59472   1.07242   1.36761
  C   8.16442   2.31082   5.58239
  H   2.54422   2.80222   2.99461
  H   3.37072   2.26722   4.41201
  H   4.19902  -0.07468   4.50446
  H   4.45792  -0.98738   3.07088
  H   6.00332   1.09762   2.30370
  H   5.33182   2.70602   2.54888
  H   2.03382  -0.78788   2.53008
  H   0.95732   1.12802   2.90729
  H   2.02432  -1.13868   4.33396
  H   1.38022   1.12502   4.66074
  H   6.11792   0.73932   4.62438
  H   5.32562   2.24032   4.96725
  H   7.89962   2.01342   3.50159
  H   7.31132   3.59192   4.10027
  H   3.60482   2.07842   0.94817
  H   4.38052   0.54582   0.82586
  H   2.58992   0.74722   1.09809
  H   9.18232   2.69042   5.67123
  H   7.57382   2.64262   6.43636
  H   8.35512   1.24292   5.68952
  N   3.96452   1.10702   2.82319
  B   3.16102  -0.47998  -5.08717
  F   3.24282  -1.73048  -5.71647
  F   4.37152   0.11402  -5.28407
  F   3.15262  -0.62778  -3.72567
  F   2.15152   0.33352  -5.62277
