42

N    1.4724567370   -1.0136716459   -2.9922349105
N    3.0873852098   -1.5389197399   -1.6297283224
C    2.8032380314   -1.1836680578   -2.8955372817
H    3.5179877567   -1.1188887852   -3.7175984766
C    1.9199864885   -1.6037041114   -0.9098908250
H    1.9144658753   -1.8152093422   0.1530540188
C    0.8981517935   -1.2713427168   -1.7719964646
H    -0.1637924749   -1.1392788802   -1.6003845050
C    4.4288372264   -1.7798370130   -1.0936046852
H    4.4921322479   -1.2563632097   -0.1329016908
H    4.5828279496   -2.8588282265   -0.9678359825
H    5.1653894406   -1.3694419052   -1.7963293212
C    0.7538326503   -0.5846232317   -4.1940941845
H    0.0439360588   0.1916496153   -3.8867557657
H    0.2342315424   -1.4446605139   -4.6346529303
H    1.4793691889   -0.1720242915   -4.9069142765
N    1.5019740821   2.2143766159   -0.0452350121
C    2.3785130882   1.3157126186   0.3720451003
N    3.2397929192   0.5967638352   0.7817174312
C    0.7042444049   1.8594720368   -1.0390778109
N    -0.0205775390   1.6555396770   -1.9662080292
C    3.6802002576   2.6109986653   -2.4741155409
H    2.9656374632   2.5464912303   -1.6519838807
N    3.3957907634   2.9653190107   -3.7401291245
N    5.0110686347   2.4417577574   -2.3773502212
C    5.5851816143   2.6990379156   -3.5977541112
H    6.6471422859   2.5671636741   -3.7693871764
C    4.5631450915   3.0303368713   -4.4600306929
H    4.5684641700   3.2410322200   -5.5231351683
C    2.0542324683   3.2053325452   -4.2764197178
H    1.9908593086   2.6802871327   -5.2362737381
H    1.9002504429   4.2840937585   -4.4040570320
H    1.3178034788   2.7961445737   -3.5728452868
C    5.7300297916   2.0139606622   -1.1752301933
H    6.4413434030   1.2389076641   -1.4823580748
H    6.2480309823   2.8748814236   -0.7345045818
H    5.0049791480   1.6000491009   -0.4626570566
N    4.9807388970   -0.7883404794   -5.3212292806
C    4.1060683764   0.1107951116   -5.7414648461
N    3.2460192449   0.8299435508   -6.1533660127
C    5.7799635047   -0.4316903112   -4.3291595754
N    6.5058679943   -0.2264048049   -3.4031847626
