42

C    0.0327242375   0.0983047347   0.3343894913
H    -0.8401179100   0.2501780445   -0.2905359648
C    1.3677102326   0.0122496255   0.0102364705
H    1.8698316815   0.0757301045   -0.9485578422
N    -0.0520633788   -0.0315777623   1.6989576742
C    1.1783487971   -0.1764717851   2.2029162868
H    1.4249867518   -0.2985314634   3.2504035048
N    2.0500186273   -0.1669417536   1.1885374830
C    3.4977923319   -0.2050085814   1.3690092724
H    3.6926920600   -0.5765531354   2.3802704478
H    3.8911981834   0.8114654642   1.2656048842
H    3.9328631211   -0.8813753939   0.6237572347
C    -1.2502309357   0.1005918542   2.5217783672
H    -1.5214906577   1.1597158216   2.5794189271
H    -1.0049118527   -0.2737661670   3.5209748744
H    -2.0555515649   -0.4966684689   2.0780415561
F    1.1836106210   2.6814182322   1.4490404025
B    1.5200636468   2.8626275553   2.7966538161
F    1.6898916217   4.1891101943   3.1432349075
F    0.4874160952   2.2632126523   3.6155297325
F    2.7293175814   2.1169835965   3.0756088938
C    1.9941719014   1.2451264974   8.1503960286
H    1.4896769067   1.1820087331   9.1079663226
C    3.3298992665   1.1585479286   7.8294519460
H    4.2011462586   1.0064453581   8.4565314357
N    1.3147764225   1.4245277571   6.9704198624
C    2.1889146112   1.4336869796   5.9581488885
H    1.9451220989   1.5556144072   4.9099765367
N    3.4180310312   1.2883424081   6.4651064165
C    4.6180284067   1.1551818622   5.6451265858
H    4.8886648037   0.0958601296   5.5883047048
H    4.3753620548   1.5296405917   4.6453257754
H    5.4228248490   1.7517864068   6.0907081809
C    -0.1325552864   1.4636243804   6.7865455236
H    -0.5269537198   0.4474827363   6.8894542182
H    -0.3247951059   1.8348289716   5.7746410185
H    -0.5687143095   2.1408911451   7.5303345598
F    2.1893804269   -1.4247684570   6.7105461567
B    1.8513115448   -1.6057591969   5.3633191446
F    1.6821656704   -2.9322073633   5.0162698385
F    2.8820546525   -1.0047504733   4.5432647286
F    0.6407882252   -0.8613551710   5.0863707076
