52

C    1.3878055411   0.5320353180   -0.7373473978
H    1.6129644079   1.3202503946   -1.4675569188
H    0.8128779709   -0.2404040280   -1.2654981459
C    1.4930026621   0.7571973887   1.7001563018
H    0.9650986671   0.4571999386   2.6123823167
H    2.1742069435   1.5852407723   1.9410846929
N    2.3589819787   -0.3920495295   1.2569213508
C    3.5841613502   -0.5216010149   2.0980826178
H    4.1631924246   -1.3671657329   1.7090185813
H    3.2572595116   -0.7009672832   3.1291368341
H    4.1569719972   0.4093774639   2.0148556986
C    1.6013702146   -1.6824040970   1.3263532839
H    0.6942520193   -1.5924505669   0.7179669528
H    1.3424452159   -1.8518404255   2.3801346374
H    2.2572994467   -2.4672168128   0.9263887633
C    2.6873336072   -0.0433050375   -0.1707080952
H    3.0652190302   -0.9440975031   -0.6675228263
H    3.4918214870   0.7043747805   -0.1285125539
C    0.6066528852   1.0662613375   0.4912237318
H    0.4174164058   2.1459745790   0.4312359283
H    -0.3704922839   0.5734469828   0.5829205623
N    1.2664187831   -0.8511254897   4.6108073809
C    1.6206659255   0.1973994539   5.0574804416
N    1.9878325157   1.3602155842   5.5760249201
C    2.6960235729   2.1085956434   4.7668005368
N    3.3431524832   2.8397202206   4.0733643439
C    7.2301442827   2.1795760914   4.1181442148
H    6.9083269687   1.5562344309   4.9620411405
H    8.2421237114   1.8549226748   3.8399355768
C    6.2224251722   4.3107030278   3.4651852690
H    5.1933307534   4.2787994278   3.8463903243
H    6.4788742204   5.3212267448   3.1202005494
N    6.2385273958   3.3743221723   2.2874523352
C    7.4668619866   3.5489060373   1.4606754298
H    8.3509840556   3.4266793609   2.0957041917
H    7.4413395158   2.7846448972   0.6739058793
H    7.4520688430   4.5592539556   1.0332610998
C    5.0326324730   3.5517313811   1.4240894006
H    4.1517015403   3.4117347428   2.0626367137
H    5.1005291365   2.8062025789   0.6220914179
H    5.0592288829   4.5702682246   1.0146319937
C    6.2475324383   2.0211427500   2.9573855485
H    6.4946561641   1.2696237589   2.1984895961
H    5.2267013401   1.8935336822   3.3389172988
C    7.2024653374   3.6921236197   4.4670381004
H    6.8482015694   3.8748189172   5.4893829451
H    8.2029955412   4.1380206521   4.3822640463
N    6.2075904495   0.9674991673   -0.0797955485
C    6.2090553340   -0.1631001040   -0.4747301839
N    6.2704490351   -1.3825043239   -0.9483078375
C    5.2791627233   -2.1721023027   -0.5611613489
N    4.3883063620   -2.8994838990   -0.2421620893
