52

C    -0.8102748816   -0.5071488964   2.7978501907
H    -1.1618176451   -1.1250803125   3.6328037009
H    -1.4730855555   0.3638636984   2.7013295563
C    0.7016806860   -1.3379859721   1.0670485328
H    0.8829306822   -1.3242785098   -0.0161723998
H    1.2548531114   -2.1706611951   1.5236976970
N    1.2645455317   -0.0770410303   1.6677832602
C    2.7539223851   -0.0849536678   1.7317344697
H    3.0762140052   -0.9187054209   2.3674579619
H    3.0614510632   0.8745400573   2.1649598087
H    3.1383883921   -0.1954963279   0.7095400323
C    0.8201383836   1.1236509561   0.9008239824
H    -0.2726959345   1.1285123959   0.8385686132
H    1.1866445645   2.0086687012   1.4352481001
H    1.2512813651   1.0629718785   -0.1062216993
C    0.6369523907   -0.0749201633   3.0428575421
H    0.7934242773   0.9170059925   3.4833143548
H    1.1881751848   -0.8341931994   3.6134848900
C    -0.7702391596   -1.3390645394   1.4886728789
H    -1.1054030218   -2.3664872437   1.6709162109
H    -1.4058311951   -0.8951691658   0.7097753743
N    -0.5629222314   -3.5500316018   3.8380124798
C    0.6084510067   -3.6802614359   3.6640440045
N    1.8947249113   -3.8733023286   3.3770240586
C    2.7239762398   -3.0006807708   3.8909201771
N    3.5395396910   -2.2114428715   4.2755728962
C    6.6465001409   1.6563483501   6.5109380063
H    7.0453435674   2.6759377707   6.4710874895
H    7.2019304476   1.0797496669   7.2637133941
C    5.2599663759   0.6212722264   4.7694372555
H    5.0971017220   -0.3322243002   4.2524852568
H    4.7657965970   1.4376871596   4.2264812043
N    4.5594515069   0.5473757749   6.1059840845
C    3.0806574612   0.6530750470   5.9583337512
H    2.7450448385   -0.2432383169   5.4233770051
H    2.8410121789   1.5551131831   5.3817742850
H    2.6374562153   0.6949173726   6.9615993546
C    4.8918302311   -0.7367433098   6.7920742836
H    5.9785430837   -0.8146564426   6.8981875245
H    4.5001229755   -1.5541796569   6.1740005519
H    4.4204602539   -0.7241103471   7.7828155938
C    5.1571686835   1.7151199109   6.8435154721
H    4.7068801613   2.6193799133   6.4143846465
H    4.9007879428   1.6299750148   7.9079863188
C    6.7085742216   0.9825739923   5.1149137599
H    7.0971503226   1.6851009019   4.3683524732
H    7.3492936649   0.0900239280   5.1262505914
N    6.0682627364   4.0814354670   4.7179495749
C    5.0359433765   4.3266983593   4.1739408713
N    3.8990560841   4.6495261989   3.5699902762
C    3.0716866668   3.6419956938   3.4501218128
N    2.2801042937   2.7518774110   3.3196884837
