52

C    9.0446682177   -6.3808541714   3.7029127974
H    10.0469077924   -6.3384187500   3.2571299624
H    9.1264076854   -6.9782522966   4.6205858615
C    7.9899552125   -6.9806297347   2.7329938195
H    8.4254261462   -7.2701123558   1.7679088263
H    7.5246795477   -7.8795557494   3.1585170312
C    6.9524501854   -5.8734545423   2.5325547150
H    5.9067373330   -6.1911300122   2.4155518484
H    7.2322720816   -5.2075768430   1.7033112938
C    8.5456807648   -4.9665493839   4.0112582476
H    8.7216600378   -4.5839444363   5.0237151605
H    8.9268083352   -4.2407847296   3.2782971860
N    7.0610352059   -5.0377674204   3.7806038821
C    6.4583282144   -3.6857220254   3.6101819485
H    5.3897858764   -3.8096944437   3.4092999751
H    6.6309154407   -3.1342272330   4.5413554225
H    6.9510334250   -3.1914391388   2.7632391519
C    6.3826086778   -5.7203388271   4.9302714057
H    6.8456985319   -6.7014463616   5.0807218713
H    6.5346211424   -5.0881901613   5.8135187073
H    5.3256988240   -5.8416843042   4.6607985068
N    3.3104222503   -1.7467905895   3.4706103557
C    2.8919393611   -2.7902645790   3.0631804927
N    2.3796634954   -3.9045167411   2.5897821212
C    3.1391283696   -4.9682932444   2.7766899617
N    3.7914623146   -5.9590354907   2.9169443453
C    7.0743962623   0.6072202043   6.5836791063
H    7.5297945808   -0.0846720018   7.3026962363
H    7.6440381661   1.5452354251   6.6251576340
C    7.0561114193   -0.0003090262   5.1565347546
H    7.3734058047   -1.0506840567   5.1974195868
H    7.7285158153   0.5255199253   4.4653970372
C    5.6083913170   0.1414871417   4.6931312291
H    5.2186718058   -0.6038869743   3.9884903928
H    5.4161247399   1.1477406354   4.2914227350
N    4.8070083296   0.0484246317   5.9651626462
C    3.4235266140   0.5671097322   5.7833299870
H    2.9054082379   0.5013858525   6.7477926593
H    3.4839143315   1.6125824331   5.4571873328
H    2.9347752105   -0.0543217447   5.0225588106
C    4.7264923849   -1.3780263620   6.4148703191
H    5.7380063832   -1.7889618094   6.4917984283
H    4.2570905235   -1.3977830018   7.4047631901
H    4.1410725873   -1.9146008447   5.6588344920
C    5.6061316284   0.8798168838   6.9366850010
H    5.3348460200   0.5948527936   7.9625531234
H    5.3261238690   1.9234977138   6.7361425966
N    5.6220682893   -0.9729132420   9.5780065204
C    6.5744317510   -1.6150036311   9.2567085175
N    7.6707824506   -2.2945474235   8.9404774650
C    7.6915232743   -2.7799376343   7.7252766312
N    7.7770737367   -3.2279020546   6.6168986722
