52

N    3.5755998985   0.2290129356   1.3840493532
C    4.2491242922   1.5086170513   1.7433123439
H    5.0769033905   1.2978609988   2.4287758984
H    4.6156145883   1.9649841918   0.8173427910
H    3.5143579209   2.1556127653   2.2379226078
C    2.4191804936   0.5106096109   0.4848949262
H    1.9280594110   -0.4446498818   0.2731473334
H    2.7994530780   0.9800607363   -0.4284635823
H    1.7318245645   1.1826563485   1.0147706938
C    3.1604401020   -0.5336929313   2.6162588274
H    2.4130736474   -1.2595421260   2.2790451696
H    2.7125857554   0.1714977952   3.3289145612
C    4.5566150609   -0.7121495488   0.7299486748
H    5.0895094758   -0.1770430133   -0.0608640762
H    3.9461672910   -1.5217625769   0.3202079304
C    5.3935634734   -1.2436658539   1.8867617573
H    5.7381188868   -2.2570009511   1.6534409381
H    6.2756976308   -0.6129354828   2.0657280880
C    4.4349102327   -1.2373064503   3.1044177112
H    4.1816185340   -2.2586824574   3.4118700144
H    4.8808235629   -0.7192455971   3.9644668625
F    3.7677411790   -3.6345250936   1.0997572825
B    2.3691237442   -3.8860484699   0.9546345362
F    1.8514554113   -4.4887364301   2.0820077272
F    2.1775721891   -4.6649715195   -0.2169333671
F    1.7329661261   -2.6066819694   0.7340835975
C    2.5423015043   -2.1474203914   -2.2477739361
H    2.0133576411   -2.6831976773   -1.4548178818
H    3.1543056322   -1.3376112905   -1.8406995434
N    3.5209823691   -3.0874714566   -2.9067980073
C    2.8467041975   -4.3674786397   -3.2631020079
H    2.0149945054   -4.1572598441   -3.9439406921
H    2.4852890822   -4.8243710683   -2.3353393747
H    3.5793862381   -5.0136903737   -3.7618118731
C    4.6820537444   -3.3686540335   -2.0135709292
H    5.1736888015   -2.4132138891   -1.8037966036
H    4.3068421027   -3.8382659565   -1.0981822019
H    5.3670510693   -4.0401430040   -2.5471735181
C    3.9291253074   -2.3232492087   -4.1402234308
H    4.6738692146   -1.5938121560   -3.8047884405
H    4.3785626067   -3.0261788810   -4.8541353950
C    1.6990415283   -1.6163375239   -3.4004282912
H    1.3577276393   -0.6020079982   -3.1666566748
H    0.8146994487   -2.2458067144   -3.5727186121
C    2.6497987482   -1.6262679981   -4.6243531471
H    2.8977921862   -0.6059903410   -4.9394658254
H    2.2000240344   -2.1509229598   -5.4784015638
F    5.3712357810   -0.2535319706   -2.2543083373
B    4.7347628196   1.0249240729   -2.4777967398
F    5.2647217620   1.6341533737   -3.5957787616
F    4.9105062676   1.8000401639   -1.3006257921
F    3.3387558279   0.7706136892   -2.6403110176
