52

C    -0.7380679936   2.1131733481   0.9633228265
H    -1.4374495203   1.6524524924   1.6718260791
H    -1.0009098213   3.1764926229   0.8818564330
C    -0.7779740138   1.4140019833   -0.4201483707
H    -1.5446229099   0.6305524384   -0.4664924960
H    -0.9886066236   2.1325444269   -1.2245000836
C    0.6053717948   0.7861021447   -0.5768951078
H    0.6361085880   -0.1999913119   -0.0953023192
H    0.9903984858   0.7343156356   -1.6039427312
N    1.5180568036   1.6642520323   0.2391957452
C    1.8137313350   2.9470592249   -0.4601944076
H    0.8782308632   3.4906382283   -0.6308990573
H    2.4897555188   3.5280519968   0.1794748985
H    2.2953815239   2.7150349155   -1.4182547883
C    2.8034096399   0.9704938354   0.5470626181
H    2.5733465295   0.0433816912   1.0809765507
H    3.4182828652   1.6537145389   1.1456203922
H    3.3034961312   0.7417733714   -0.4027385426
C    0.6927958446   1.9260137681   1.4792630723
H    1.0981034706   2.7919103353   2.0154662758
H    0.7572986120   1.0062447982   2.0723099374
N    0.4350533282   -1.2554243892   1.9224010501
C    1.3356326423   -1.8860884497   2.3934371230
N    2.2975374111   -2.5761759234   2.9785528398
C    3.5117195957   -2.2770723033   2.5350572854
N    4.6345782283   -2.0145119570   2.2251701807
C    5.9847780058   1.8754278467   5.8142300532
H    6.4084892751   2.8862466122   5.8676913760
H    6.2549700788   1.3610619791   6.7467103588
C    5.2149839873   0.7671255672   3.7717267046
H    4.9600615942   1.5995102994   3.1009250311
H    5.2134110900   -0.1876737806   3.2267762227
N    4.1203374150   0.7513289711   4.8136797255
C    2.7615134677   0.8615032235   4.2091505129
H    2.7858164260   1.6888219172   3.4943305197
H    2.5296484581   -0.0892682624   3.7186161600
H    2.0417637482   1.0847759501   5.0063456902
C    4.1756517807   -0.4951050918   5.6304775124
H    5.1719993602   -0.6027538155   6.0707586504
H    3.9535186686   -1.3453378084   4.9754350398
H    3.4193763101   -0.4152301646   6.4209406540
C    4.4676112180   1.9597363404   5.6417277510
H    4.1807537090   2.8247634142   5.0336788826
H    3.8629699751   1.9658506619   6.5566918268
C    6.4806319574   1.0890120450   4.5703475909
H    7.1679584009   1.6803721158   3.9521676239
H    7.0133709841   0.1734080247   4.8614727525
N    3.8642140092   3.6746672158   2.2297000731
C    2.9781752927   4.1030464870   2.9155239695
N    1.9408442756   4.5659943948   3.5777839591
C    1.7826872890   4.0145734558   4.7823129834
N    1.5996648957   3.5256229074   5.8532829724
