52

C    0.1252771943   0.1737489853   -0.8192358508
H    -0.1806200652   1.1089414858   -1.3045677099
H    -0.3892763444   -0.6506212639   -1.3320608713
C    -0.1987361942   0.1775619816   0.6985500027
H    -0.7142022861   1.0965113687   1.0046251046
H    -0.8457516183   -0.6687920678   0.9678096435
C    1.1573820936   0.0920778406   1.3997207022
H    1.1931408607   -0.4803772760   2.3345165159
H    1.5873094020   1.0943685664   1.5211537481
C    1.6487722260   0.0362390598   -0.9058622478
H    2.1246444389   1.0251173476   -0.9119751290
H    2.0164159325   -0.5899116769   -1.7295223388
N    2.0512752340   -0.6006835309   0.3984427398
C    1.7770168882   -2.0658012339   0.3870578865
H    0.7226250209   -2.2312884495   0.1401647546
H    2.0111026443   -2.4554144523   1.3854091457
H    2.4144599174   -2.5281205450   -0.3767638053
C    3.4890565501   -0.3617141330   0.7148473765
H    3.6506601399   0.7224597954   0.7071267740
H    3.6828105443   -0.8017760749   1.7009415145
H    4.0973338197   -0.8512505409   -0.0563801411
N    2.6570430678   -1.9845467303   3.5227577383
C    3.3537935643   -2.8209476950   4.0267977161
N    4.0656805664   -3.7735213220   4.5706529363
C    5.2067833885   -3.3632830533   5.1173061424
N    6.2255395716   -3.0362458101   5.6425166079
C    6.6580106133   1.0794308645   6.4437953411
H    7.3910001564   1.8957340314   6.4733071091
H    6.8267275969   0.4500892920   7.3287318982
C    5.3352314712   0.2324356794   4.5592181486
H    5.0025505729   -0.7321797952   4.1606131744
H    5.1996734451   1.0376903581   3.8263225477
N    4.4335895313   0.6001476277   5.7164207817
C    3.1273606852   1.1292364336   5.2325903788
H    3.3322718354   2.0247967985   4.6341746165
H    2.5109477577   1.3749218571   6.1070001260
H    2.6504272458   0.3391559950   4.6374509558
C    4.1967203379   -0.5791178077   6.5992831681
H    5.1420197028   -1.0948745539   6.7987601615
H    3.5214812415   -1.2618378905   6.0727072688
H    3.7313457973   -0.2217822938   7.5267647414
C    5.2434032559   1.6527543434   6.4285870517
H    4.7950599369   1.8363596140   7.4142520699
H    5.1851859165   2.5473709428   5.7938260236
C    6.7534302191   0.2411417997   5.1423376343
H    7.4366362401   0.7027838843   4.4179730738
H    7.0937008913   -0.7820612933   5.3475769004
N    5.0046659515   3.3924430149   3.7284525581
C    4.4925220057   3.8009403637   2.7296083571
N    3.9641531078   4.3209961075   1.6413171069
C    3.1866000411   3.5093020940   0.9593790646
N    2.4662278896   2.8262719601   0.2933607873
