52

C    8.4002230825   -6.1935798278   7.8804748176
H    8.3530296731   -6.1023963622   6.7872743552
H    9.1884772108   -5.5241266587   8.2497096372
C    8.6354406823   -7.6615295223   8.3257315756
H    8.8028702648   -8.3355851235   7.4759034300
H    9.5109072248   -7.7373422042   8.9853612517
C    7.3521634018   -8.0576762775   9.0551956268
H    7.4759963293   -8.7817333754   9.8715125853
H    6.5782057765   -8.3950962849   8.3522879480
N    6.8378210179   -6.7626942544   9.6298181574
C    5.3961112959   -6.8511392232   10.0026391718
H    4.8468246004   -7.2192801918   9.1271505539
H    5.3030939535   -7.5520953521   10.8423103349
H    5.0666540098   -5.8472133087   10.3015636332
C    7.6426933167   -6.3573730220   10.8194519047
H    8.6675443820   -6.1261993557   10.5125474223
H    7.1951337150   -5.4582391740   11.2567126960
H    7.6206253039   -7.1845102923   11.5401267348
C    7.0484976792   -5.8015697332   8.4825127748
H    6.9978686016   -4.7793041330   8.8696670612
H    6.2227747314   -6.0023424933   7.7898696516
N    9.3106551338   -3.5906721426   9.9349020333
C    8.3376755883   -3.2291865234   10.5209779735
N    7.2784523732   -2.8648765367   11.2422787594
C    6.1305046427   -3.0923535901   10.6503352046
N    5.0553477232   -3.3124435795   10.1668210994
C    3.0930092546   -0.7471509666   7.0014929924
H    2.1672515363   -0.2080157491   7.2406191847
H    3.9274918606   -0.0772612773   7.2475114778
C    3.2597995387   -2.7216265212   5.5575938100
H    3.8785870193   -3.1939128258   4.7820750085
H    2.2673585147   -3.1943966813   5.5786521247
N    3.8772488007   -3.0089748136   6.9005079283
C    3.6740118153   -4.4223562015   7.3264605986
H    4.1810049272   -5.0721782728   6.6065983249
H    4.0909100112   -4.5246709263   8.3349830128
H    2.5968761878   -4.6310236908   7.3298166801
C    5.3473757565   -2.7210678711   6.8696201767
H    5.4983489318   -1.6745744988   6.5837491765
H    5.7285334032   -2.8931594527   7.8821063812
H    5.7972693332   -3.3828412709   6.1185938441
C    3.1715769229   -2.0430191880   7.8124759201
H    3.7143765824   -2.0057634332   8.7653788993
H    2.1727893390   -2.4693812862   7.9838308684
C    3.1506223043   -1.1950081473   5.5149326793
H    2.2562163616   -0.8959512706   4.9533639235
H    4.0152116110   -0.7549481701   5.0007359049
N    5.4776254259   -4.6567799575   4.2569523700
C    5.5007317251   -5.8364494800   4.4447838717
N    5.5450837743   -7.1467341036   4.6082416904
C    5.1944875442   -7.5234833873   5.8218113006
N    4.8934998024   -7.9028620128   6.9153854574
