52

N    0.4125191631   2.1286441523   0.5612120458
C    -0.9168203028   2.7358094177   0.2769688250
H    -1.3578086468   3.0925752916   1.2140042042
H    -1.5435816994   1.9605515770   -0.1785978733
H    -0.7735494108   3.5780414886   -0.4110216239
C    1.0361801457   1.6858995906   -0.7200043242
H    0.3658634746   0.9604804045   -1.1886655353
H    2.0004098572   1.2304523273   -0.4754592403
H    1.1753844679   2.5738860891   -1.3501113802
C    1.3054900470   3.0802426708   1.3154194276
H    2.3243129715   2.7000650247   1.1865588779
H    1.2133714654   4.0770504170   0.8637854943
C    0.2558468054   0.9809914601   1.5282780917
H    1.2107023076   0.4529732772   1.4940876299
H    -0.5581565664   0.3348185676   1.1902031782
C    0.0718497639   1.6532810583   2.8837044172
H    0.4751350747   1.0060868111   3.6702474297
H    -0.9907125762   1.8347611253   3.0991616774
C    0.8638978540   2.9812992206   2.7822944993
H    1.7561211443   2.9599837590   3.4192452933
H    0.2476815607   3.8410548736   3.0793102404
F    0.4347886282   -1.3729375018   -0.9128404470
B    -0.9805164035   -1.4829007315   -0.6326487748
F    -1.5384463827   -2.4676520733   -1.4257149975
F    -1.1058415892   -1.7921843925   0.7488418945
F    -1.5561411800   -0.2041474225   -0.8731135615
C    3.8998997740   -3.4046061321   1.6923422472
H    4.5539722493   -2.5467353429   1.8929124604
H    4.4503855509   -4.1940849839   1.1631515245
N    2.8115525211   -2.8788765297   0.7978982116
C    2.0051300766   -3.9727998167   0.1881007347
H    1.5620644249   -4.5813729364   0.9837418632
H    1.2171530114   -3.5051842707   -0.4124955303
H    2.6645331046   -4.5884884342   -0.4364061021
C    3.3741318470   -2.0112962115   -0.2782037074
H    2.5335565509   -1.6270493524   -0.8638002576
H    3.9216757031   -1.1928217309   0.1986283036
H    4.0354216980   -2.6295053936   -0.8989717570
C    1.9539919979   -2.0887056110   1.7563122766
H    2.4779664414   -1.1453891473   1.9015241550
H    0.9733477962   -1.9314861602   1.2995118773
C    3.1766489031   -3.8431955365   2.9635992136
H    3.8479659465   -3.7475816069   3.8264246895
H    2.8663156521   -4.8957513279   2.9036980297
C    1.9516172883   -2.8967914946   3.0576342894
H    2.0422773698   -2.1985330649   3.8992535021
H    1.0185136528   -3.4622367666   3.1834791177
F    2.8409840064   0.4936114987   3.3072328608
B    3.9746600730   0.7153178431   2.4717806975
F    4.6076544555   1.8982698974   2.8029818420
F    4.8212443011   -0.4115060479   2.5285447410
F    3.4749056318   0.8031521790   1.1077392443
