48

N    3.5282556971   -1.1282888792   -0.7822634964
N    2.2957291758   -0.4166997166   -2.4358655169
C    2.3350849022   -0.5852100706   -1.1006643421
H    1.5637382864   -0.2853356255   -0.3945569256
C    3.4773835458   -0.8569863437   -2.9756108157
H    3.6586187844   -0.8089218138   -4.0431035612
C    4.2580796440   -1.3097618331   -1.9332476169
H    5.2719485929   -1.6939030951   -1.9609581446
C    1.1666497203   0.0916068736   -3.2250077946
H    0.6799363646   0.9040875356   -2.6737057560
H    1.5785206029   0.4630025411   -4.1723787939
H    0.4673838488   -0.7325110979   -3.4170957910
C    3.9241375359   -1.5495733715   0.5746641469
H    3.2579848593   -1.0225128896   1.2670922798
H    3.7359838226   -2.6315479830   0.6396711654
C    5.3729603668   -1.2192175933   0.8889320402
H    5.5096499290   -0.1329390925   0.9392549903
H    6.0682426422   -1.6629677996   0.1628307025
H    5.6123972278   -1.6381132867   1.8767459904
N    1.2201478083   1.9696611201   0.7955626901
C    0.9409333814   2.4582408257   -0.4011276887
N    0.6426688472   2.8541630791   -1.4879179731
C    2.5194829803   1.7958445516   0.9880249057
N    3.6731043832   1.5680956785   1.1965620864
C    3.7288659324   2.6283977005   -2.6994289745
H    2.9522540284   2.4458584282   -1.9613916131
N    3.5461233570   3.2912726116   -3.8540867822
N    5.0345139700   2.3233242257   -2.5924942056
C    4.7472313277   3.3908934135   -4.5056177671
H    4.8347314004   3.8351086703   -5.4908462616
C    5.6929437372   2.7849379368   -3.7052705815
H    6.7529753849   2.6133224371   -3.8573290613
C    2.2449243324   3.6865891814   -4.3939933871
H    1.4990394437   3.5845257074   -3.5966863081
H    2.3040041569   4.7304451649   -4.7242270656
H    2.0224484912   3.0193037262   -5.2357132902
C    5.6620487034   1.6474978836   -1.4474377497
H    4.8519749501   1.1702470119   -0.8830425448
H    6.3188790488   0.8780126065   -1.8753172603
C    6.3982456057   2.6365137342   -0.5592284247
H    5.7002238006   3.3667478595   -0.1290237269
H    6.8656267088   2.0909023468   0.2723316422
H    7.1888263578   3.1620982532   -1.1145730035
N    5.7056544694   0.2675646702   -5.8714261288
C    4.4324228623   0.6044298948   -5.8059157471
N    3.2812739625   0.9282969035   -5.7905737638
C    6.2185308657   -0.1460423737   -4.7231468574
N    6.7344241513   -0.5151097047   -3.7106479196
