58

C    0.3907252762   1.3356815122   1.4112235240
H    0.2193697353   0.8762688422   2.3947056247
H    -0.2594171211   2.2196859772   1.3431449851
C    1.4066553980   0.3641829870   -0.6011958151
H    2.0841409690   -0.4500185815   -0.3206432855
H    1.2490884663   0.3613820006   -1.6879614483
C    1.8551321932   1.7287488607   1.2583843528
H    2.1224088923   2.7264343493   1.6226607068
H    2.5157727083   0.9667172353   1.6900925447
N    2.1209766537   1.6412911524   -0.2252661989
C    3.5888615346   1.5459198539   -0.4897914061
H    4.0901116167   2.4170316939   -0.0473517467
H    3.9441494723   0.6227410490   -0.0131106641
H    3.7401888002   1.5038945915   -1.5764675192
C    1.4960863214   2.7824572330   -0.9873881358
H    0.4117223022   2.6951651630   -0.8359918014
H    1.7043066686   2.5633401378   -2.0452226891
C    1.9881232455   4.1664579714   -0.6084523536
H    3.0704362455   4.2782565079   -0.7468716189
H    1.7452247915   4.4394743599   0.4269542079
H    1.4836423387   4.8841245798   -1.2717776862
C    0.1254082276   0.3457743426   0.2465052712
H    -0.0427976386   -0.6734279630   0.6155431395
H    -0.7538867860   0.6454848415   -0.3399871492
N    0.3820332815   -1.0845427472   4.2929653104
C    0.8385581579   -1.6425077693   3.3415047360
N    1.3143910849   -2.2737022849   2.2742683998
C    2.4657502624   -1.7690993010   1.8701960219
N    3.4956185316   -1.3167789581   1.4582391113
C    5.4251652056   1.9916098213   4.7003735198
H    5.5588697669   3.0326343713   4.3779320440
H    6.4163873074   1.5962205645   4.9613391580
C    4.7536472956   1.1536483048   3.5821289001
H    4.7365273432   1.7015920718   2.6316176145
H    5.2706138905   0.2000956156   3.4052152014
C    3.3466997088   0.9071760476   4.1030305091
H    2.8410761236   0.0124500423   3.7326288431
H    2.7020035779   1.7877778988   3.9805063061
N    3.5278944707   0.7869035466   5.5955201433
C    2.2127121631   0.9245759420   6.2921679582
H    2.3836864958   0.8262253629   7.3718388147
H    1.8222471151   1.9216534209   6.0504213284
H    1.5311452177   0.1491321015   5.9182270773
C    4.2222502773   -0.4959595943   5.9817783526
H    5.2691418165   -0.3907681681   5.6678981024
H    4.2029527711   -0.5070040389   7.0813378332
C    4.4534028129   1.9428528288   5.8936081828
H    3.8164794197   2.8353468622   5.9299775743
H    4.9208122575   1.7696995381   6.8723935116
C    3.6124826073   -1.7580128393   5.4003492641
H    2.5367484061   -1.8388255579   5.6010007979
H    3.7742459590   -1.8243894558   4.3162288253
H    4.1190081743   -2.6164263068   5.8649001437
N    4.8009300958   3.9553294595   1.4934701333
C    3.8774904031   4.4026598536   2.1061948409
N    2.7910583989   4.9096355006   2.6664899905
C    2.4800017960   4.4073299584   3.8501594823
N    2.1267374889   3.9766792047   4.9063771231
