50

H    0.0889984677   -0.7366263916   -2.2319461335
C    -0.5031241881   -0.7088379681   -1.3059611273
H    -0.2819213195   -1.5775161866   -0.6705091369
N    -0.0594250942   0.5430954487   -0.5956689910
C    -0.5268142353   0.5701211329   0.8155832133
H    -1.5894993878   0.3054006602   0.8428357346
H    -0.3929019521   1.5866571728   1.2054133111
H    0.0529791248   -0.1597947903   1.3957617360
H    1.6421798584   0.7814244565   -1.7595896549
C    1.4412190254   0.6674620142   -0.6835085134
H    1.8394530997   -0.3077110929   -0.3612009508
H    -0.2066213234   1.6432973092   -2.3442789678
C    -0.7581295514   1.6178212344   -1.3952626327
H    -0.7104144707   2.5746690747   -0.8519298999
H    3.0420461692   1.9841626433   -0.1866227355
C    2.0141589285   1.7967350143   0.1578255659
H    1.4360530555   2.7289279661   0.0759364102
H    2.0695418601   1.5275763014   1.2225514229
H    -2.5377005546   1.4184257873   -2.5973964912
C    -2.1586661161   1.0584659223   -1.6312877348
H    -2.8645090619   1.3898966354   -0.8563700093
H    -2.2180922203   -0.9310654682   -2.5952201282
C    -1.9853180195   -0.4833366200   -1.6208078197
H    -2.6381374570   -0.9562764826   -0.8735710109
CL    0.9552409299   0.8222385918   -4.2895588545
H    1.0956510997   3.7458740112   -1.6426778733
C    1.7379736969   3.7658302583   -2.5318411909
H    1.9025586662   2.7647743925   -2.9530228448
N    0.9487862072   4.5644915317   -3.5452980438
C    1.5607727587   4.3894861823   -4.8918589300
H    2.6218055134   4.6571831940   -4.8344526067
H    1.0554267890   5.0474062132   -5.6078337608
H    1.4505276204   3.3291673976   -5.1617530788
H    0.4323415742   6.0178052183   -2.1443634321
C    1.0947587037   5.9659851745   -3.0213255205
H    0.7903555037   6.6821426715   -3.7947961535
H    -0.8001706652   4.1737719502   -2.4939646751
C    -0.4858439898   4.0999708134   -3.5449236501
H    -0.4390081127   3.0494267493   -3.8655870277
H    -2.4153974986   4.5084246966   -4.3345709323
C    -1.4000600048   4.9166087588   -4.4416938129
H    -1.1347757150   4.8457603894   -5.5053295751
H    -1.4433506395   5.9741018871   -4.1460774489
H    3.2300183417   4.5225443246   -1.1766287335
C    2.9744749046   4.6168654273   -2.2405428979
H    3.8475052171   4.2959682647   -2.8263323053
H    2.6441863251   6.7457837280   -1.7352835792
C    2.5608508657   6.0687803702   -2.5948079473
H    3.1863567239   6.4766873672   -3.4014855936
CL    -0.3151994551   4.7002066635   0.0955250158
