58

C    -1.2497727418   0.0395678400   2.2457779937
H    -1.7811035969   -0.1050440784   3.1947437625
H    -1.8209190692   0.7580351844   1.6415676904
C    0.4595397721   -1.4248894793   1.2469154925
H    0.7265275504   -1.7823140554   0.2448119094
H    0.9423849653   -2.0658030729   1.9957590174
N    1.0122852484   -0.0349186850   1.4270892679
C    0.8208752458   0.7726240952   0.1862729234
H    1.3755559642   0.3004781967   -0.6316823926
H    -0.2475541102   0.7854292310   -0.0572119507
H    1.1865862219   1.7866118123   0.3929395125
C    2.4604722330   -0.0307527287   1.8486856046
H    2.4893405047   -0.5542872370   2.8128294740
H    2.7089133923   1.0301260211   1.9906546002
C    0.1601973947   0.5407970636   2.5356272356
H    0.5213472069   0.0815923908   3.4628002218
H    0.3154539590   1.6267990549   2.5487454734
C    3.3994961941   -0.7116870370   0.8709202031
H    3.1212990672   -1.7586768994   0.6906081235
H    3.4785859911   -0.1758925816   -0.0846558975
H    4.3955418287   -0.7319784432   1.3339091713
C    -1.0516605666   -1.2993057327   1.4915612255
H    -1.3902035452   -2.1528972210   2.0917081092
H    -1.6114700561   -1.3107535596   0.5463206456
N    0.1081326240   -1.6642151107   4.9249186669
C    0.9025285223   -2.4318083360   4.4699751942
N    1.7339968326   -3.2961506244   3.8984020057
C    2.9762243116   -2.8481453559   3.8384706487
N    4.1032163301   -2.4602496598   3.7365323977
C    6.3484548164   1.6933359254   6.5635905435
H    6.5342718957   2.7688568498   6.6576213277
H    7.0707786682   1.1509082581   7.1896505815
C    5.0388449843   0.7053823092   4.7382088002
H    4.4140639352   1.5204437769   4.3598557883
H    5.0044294084   -0.1701604518   4.0758561934
N    4.4527904592   0.3022669836   6.0691895918
C    5.0569598847   -0.9935439534   6.5049450819
H    6.1386295118   -0.8639755944   6.6116832214
H    4.6177615420   -1.2650170728   7.4728934118
H    4.8349430491   -1.7502453551   5.7417770451
C    4.9064430415   1.4076316759   6.9858333272
H    4.2889990132   2.2848434116   6.7671425035
H    4.7726244940   1.0731759818   8.0234253149
C    2.9545830494   0.1199433062   6.0358126392
H    2.7860842802   -0.7830271529   5.4367850451
H    2.6677828974   -0.1099684413   7.0727639974
C    2.1455118528   1.2875417342   5.5026867039
H    2.3141820904   1.4779428595   4.4351845118
H    2.3224298125   2.2220589255   6.0508744807
H    1.0898219392   1.0060586814   5.6268774126
C    6.4319618062   1.2408935025   5.0819502676
H    6.6629488821   2.0882224191   4.4260758974
H    7.2019951894   0.4697643916   4.9400721741
N    4.6974947361   3.9127352947   5.2109819258
C    4.0068320349   4.3080991584   4.3205808215
N    3.2660474403   4.8114756365   3.3517071669
C    2.5892989711   3.9241030285   2.6599902295
N    1.9448326368   3.1698429184   1.9924076654
