58

C    0.0657406826   0.2893747128   -0.3300372506
H    -0.4330063196   1.2372752220   -0.5679085298
H    -0.2324945068   -0.4418468628   -1.0939583125
C    -0.2829952615   -0.2122252211   1.0952036445
H    -0.9836727231   0.4600567574   1.6062163716
H    -0.7451017659   -1.2085145002   1.0651223341
C    1.0484025801   -0.2288818213   1.8466006193
H    1.1884262585   -1.0266357762   2.5858042946
H    1.2442768434   0.7631027501   2.2743494881
C    1.5831275645   0.5030481453   -0.3200176136
H    2.0874782798   0.2642653975   -1.2639885055
H    1.8278237994   1.5220411937   0.0079196016
N    2.0924709313   -0.4069434029   0.7651985960
C    2.1198995925   -1.8287423169   0.3176990485
H    1.1125451810   -2.1213992177   0.0021207130
H    2.8098049763   -1.9202448978   -0.5282918207
H    2.4448495226   -2.4364369631   1.1720304162
C    3.4436718884   0.0106200969   1.2905483013
H    3.2889764496   1.0233573811   1.6771324881
H    3.6495914473   -0.6791582351   2.1198359199
C    4.5605668257   0.0039894036   0.2638454150
H    4.8180566859   -1.0056485988   -0.0835727437
H    4.3338799808   0.6425320770   -0.6013521592
H    5.4444499756   0.4358007147   0.7558982138
N    2.7407965411   -2.4431664600   3.4765167557
C    3.2484296441   -3.2058981501   4.2500272271
N    3.7550020552   -4.0789569429   5.0797590586
C    4.7834438023   -3.6334728693   5.7938162823
N    5.6960536211   -3.2711830199   6.4699910517
C    6.6681761744   0.8232893978   6.2595103643
H    7.5070901761   1.5250002489   6.1679176398
H    6.6633300649   0.4454500093   7.2913285822
C    5.4206328964   -0.3002195617   4.4818896379
H    4.9795447590   -1.2747068195   4.2462579844
H    5.5070186774   0.3269904773   3.5850397142
N    4.4697672370   0.4458872921   5.3945457382
C    3.9940101609   -0.4476587253   6.4916236445
H    4.8329460893   -1.0287838941   6.8896207845
H    3.5322161936   0.1679926312   7.2720452256
H    3.2608750200   -1.1413206371   6.0631502139
C    3.3068883412   0.9709910025   4.5957342867
H    3.7611090265   1.5604608507   3.7924989841
H    2.8254026814   0.0785557688   4.1717348511
C    5.3584636136   1.5382032120   5.9285462785
H    4.8682899444   2.0278090196   6.7787101096
H    5.4926057786   2.2434144357   5.0961426841
C    2.3196776891   1.8128700590   5.3821079921
H    1.7845873434   1.2368300143   6.1490955759
H    2.8000450281   2.6837714719   5.8494002661
H    1.5839114582   2.2003366578   4.6621481772
C    6.7496137510   -0.3435429116   5.2422334946
H    6.8790379306   -1.3100843949   5.7461476668
H    7.5749737130   -0.2038796779   4.5322920690
N    5.7675987662   2.4913274222   2.6637164195
C    4.8905607076   3.2332139188   2.3289555597
N    3.9342704969   4.0718301563   1.9700984905
C    2.7490271348   3.4915542043   1.9480909632
N    1.6651645961   2.9845797745   1.9124676964
