58

N    1.7039020810   1.5387180846   -0.8121089693
C    0.5127974501   2.3216900691   -1.2408788212
H    0.6374309385   3.3669643416   -0.9390398987
H    0.4275085737   2.2652943670   -2.3315398487
H    -0.3665156591   1.8718325691   -0.7642187667
C    2.9622245980   2.0319026568   -1.4775195944
H    3.7978011311   1.6299216242   -0.8934794236
H    2.9756557359   3.1285170945   -1.4512291111
C    1.8171655292   1.5194818181   0.6924719589
H    0.8900902663   1.0637723027   1.0535416719
H    2.6497126571   0.8382877701   0.9016125278
C    1.5795634214   0.1272584021   -1.3403161538
H    2.3260808210   -0.4455911317   -0.7864861686
H    0.5753990024   -0.2466065041   -1.1271087226
C    2.0654021187   2.8855657103   1.3066923289
H    1.2318867399   3.5839230854   1.1525572538
H    2.9953562736   3.3463035750   0.9458868178
H    2.1692287838   2.7439935754   2.3917220244
C    1.9646660962   0.2317879209   -2.8119803441
H    2.4422637920   -0.7011064847   -3.1309795297
H    1.0827815410   0.3994355152   -3.4461754744
C    2.9494857640   1.4246460967   -2.8863773065
H    3.9660168146   1.0942081281   -3.1299600799
H    2.6337447211   2.1593562914   -3.6398891853
F    -1.0739762254   0.0589143182   0.5040435120
B    -0.6814679155   -1.2498570596   0.9063492502
F    -1.6181686611   -1.8487134442   1.7306764995
F    -0.4333994898   -2.0321217282   -0.2510168219
F    0.5740976285   -1.1154931924   1.6135836943
C    2.4630320202   -4.8930005376   1.5600990794
H    1.7950016360   -5.4359786976   0.8811252545
H    3.1790408437   -5.5956662755   2.0127139205
N    3.2757432801   -3.8981287006   0.7838701753
C    2.3719223630   -3.0616608991   -0.0724516351
H    1.7998218964   -2.3844330995   0.5652961861
H    3.0041383612   -2.5070283697   -0.7708913476
H    1.6766420291   -3.7196396792   -0.6042132019
C    4.3733269467   -4.5131509581   -0.0383975915
H    5.0103866488   -3.6769690626   -0.3560933129
H    4.9451523013   -5.1482481906   0.6543160026
C    3.8703318917   -3.0372880989   1.8756209388
H    4.2093754732   -2.0993706649   1.4235151848
H    4.7386592427   -3.5949287258   2.2545789010
C    3.8756943704   -5.3114944824   -1.2291025347
H    3.3844044205   -4.6688744407   -1.9699061706
H    4.7482895409   -5.7676458146   -1.7169958538
H    3.1928003422   -6.1223265826   -0.9388444003
C    1.7565369707   -4.0437977647   2.6139045390
H    0.8236602893   -3.6207997999   2.2195841581
H    1.5053654662   -4.6533794651   3.4916682460
C    2.7626135095   -2.9094394309   2.9304868095
H    2.2575823259   -1.9397910845   2.8654924070
H    3.1962420250   -3.0107442787   3.9342868919
F    6.1262923458   -1.7455808477   -0.4100655736
B    5.1954219827   -0.8297254127   -0.9201681138
F    5.7790517243   0.3196939531   -1.4490620666
F    4.3925004580   -1.4742951432   -1.9092762058
F    4.3073147641   -0.4451232181   0.1604759919
