46

C    0.1554917364   2.0864438832   -0.1619496398
H    -0.7186155141   2.5726981703   -0.6013059464
N    0.2248286682   1.8570593923   1.1941748787
C    1.4207532808   1.3280585157   1.5070905634
H    1.8440985986   1.1604525703   2.5036422980
N    2.1273001802   1.2102349350   0.3705424829
C    1.3686906041   1.6757902147   -0.6802332370
H    1.7312693160   1.6719407895   -1.7029935009
C    -0.8629357139   2.0673246288   2.1484579378
H    -1.5248680991   2.8356062709   1.7283091506
H    -1.4113525699   1.1260349396   2.2862022209
H    -0.4255871477   2.3835968201   3.1052904337
C    3.5062500659   0.7068556348   0.3073264804
H    3.7537999568   0.3676800384   1.3209057491
H    3.5124062496   -0.1464995561   -0.3878329893
C    4.4969413101   1.7805815710   -0.1203302486
H    4.4737420326   2.5780950395   0.6336640509
H    4.2037069919   2.2043651281   -1.0954283790
C    5.9056684837   1.1968920498   -0.1927979394
H    6.6302034326   1.9623947095   -0.5019887145
H    6.2112153961   0.8215549981   0.7944448296
H    5.9622614712   0.3666782287   -0.9138843752
CL    3.7308395282   2.0386359940   3.5059565392
C    1.3508061853   4.4216902400   3.6373402191
H    2.2379797183   3.9697091044   4.0843840957
N    1.2831140252   4.6478094385   2.2824027373
C    0.0673462806   5.1212664022   1.9553483184
H    -0.3556423846   5.2626208537   0.9530245228
N    -0.6561177180   5.2027854611   3.0864602051
C    0.1151829095   4.7791308693   4.1438216537
H    -0.2635833782   4.7589275470   5.1606159708
C    2.3809818677   4.4541986624   1.3363949206
H    3.0566286556   3.7083079875   1.7756299876
H    2.9026260025   5.4081619481   1.1819233044
H    1.9595709195   4.1041012410   0.3839421716
C    -2.0753213239   5.5850864794   3.1230514161
H    -2.6223193536   4.8592204436   2.5056632970
H    -2.3887794939   5.5114275269   4.1741829068
C    -2.2973108311   6.9846653211   2.5671352543
H    -1.9366884232   6.9985624025   1.5286369638
H    -1.7102897629   7.7112515592   3.1529630561
C    -3.7819132316   7.3365127697   2.5847502977
H    -3.9458978525   8.3487424668   2.1909960215
H    -4.3436757729   6.6323449428   1.9543650315
H    -4.1933328279   7.3007291200   3.6054837057
CL    -2.2127424723   4.4732822490   -0.1116887009
