46

N    11.3581707654   3.2352427035   -1.0519413514
C    12.5353454839   3.0068021131   -1.6591228073
H    12.7035868832   2.6701386937   -2.6839539672
N    13.4995384055   3.0728766493   -0.7258359817
C    11.5601600918   3.4431785499   0.2922546919
H    10.7040904219   3.5993870481   0.9555173498
C    12.9221459778   3.3303897925   0.4973166857
H    13.5054645779   3.4384093514   1.4057403162
C    10.0612609281   3.3256317125   -1.7223495840
H    10.0997890436   2.7172646722   -2.6329701350
H    9.8628095571   4.3720836700   -1.9875748399
H    9.2943308778   2.9794754629   -1.0165108525
C    14.9224198738   2.8374437396   -1.0005352665
H    14.9899333209   2.6135933699   -2.0725725304
H    15.4650807753   3.7679714905   -0.7730140907
C    15.4816004442   1.6633173836   -0.2093410500
H    14.9120707875   0.7691319707   -0.4914268330
H    15.3579031052   1.8377538178   0.8731848717
C    16.9551702568   1.4544652245   -0.5490419305
H    17.3727665554   0.6121510998   0.0192210241
H    17.0677623528   1.2292610922   -1.6192149226
H    17.5533701325   2.3490048159   -0.3163595710
CL    13.6254550427   0.5762738768   -3.2630468020
N    10.9752840489   0.1496918768   -0.5316914038
C    10.2936503303   0.4048962684   0.5982904314
H    9.2453567257   0.6942624837   0.6945469337
N    11.1748745139   0.4385155161   1.6118810247
C    12.3152115850   0.0246805773   -0.2490720754
H    13.0314947103   -0.1392147997   -1.0597744555
C    12.4393076859   0.2176089726   1.1136945147
H    13.3186893365   0.1884927293   1.7485180888
C    10.3824707946   -0.0428020416   -1.8549948564
H    9.4413075082   0.5169233424   -1.8968108072
H    10.1821459681   -1.1107637495   -2.0102748097
H    11.1107547807   0.3011681307   -2.6016598520
C    10.8112071535   0.7311056742   3.0038587266
H    9.7269641635   0.8994262082   3.0037439781
H    11.0565894373   -0.1566782293   3.6069754968
C    11.5091885592   1.9735859439   3.5389436889
H    11.2119674212   2.8209440018   2.9087534909
H    12.6043756519   1.8524898586   3.4799305913
C    11.0806026564   2.2380264384   4.9800551310
H    11.5810287067   3.1303488665   5.3802398165
H    9.9956735231   2.4097413771   5.0259758201
H    11.3271957851   1.3891226899   5.6363616766
CL    8.5108233047   2.7984295630   1.4714864384
