46

C    7.1488908687   -4.0180709116   8.8831523436
H    7.8001224404   -4.1710894369   8.0297767066
N    7.6217903412   -3.6391220016   10.1149366134
C    6.5925548946   -3.4645213926   10.9520741601
H    6.7087299343   -3.1483486943   12.0002300784
N    5.4688384598   -3.7904979238   10.2988744446
C    5.7821670673   -4.1244521806   9.0014510444
H    5.0263505706   -4.4011596906   8.2747483084
C    8.9570700704   -3.1470227445   10.4253674204
H    9.0994329231   -3.2251851320   11.5101963933
H    9.7007805422   -3.7520280069   9.8923427059
H    8.9932350140   -2.0937056522   10.1161714536
C    4.1194108678   -3.6646329325   10.8574405293
H    3.4684851596   -3.3568241512   10.0264324855
H    3.7863019588   -4.6531766289   11.2110496032
C    4.0757567509   -2.6261582677   11.9721757596
H    4.6915289069   -2.9630754524   12.8204073969
H    4.5387027175   -1.7095088207   11.5742127187
C    2.6383088408   -2.3893688244   12.4258453144
H    2.6005681440   -1.6791240512   13.2645966862
H    2.0224612917   -1.9803044409   11.6101022049
H    2.1670092908   -3.3226400952   12.7718168304
C    6.2733123328   2.2178315545   12.5497641823
H    5.4686316508   2.9256910671   12.7159622325
N    6.2196971765   0.9172445051   12.9949511789
C    7.3321636105   0.2730183748   12.6226905468
H    7.5383577701   -0.7750337095   12.8783661034
N    8.1378921805   1.1563442409   12.0160159414
C    7.4892376915   2.3654014648   11.9225792662
H    7.9317766936   3.2234753212   11.4287356344
C    5.0925670850   0.2504572090   13.6318667179
H    4.2725490463   0.1678283168   12.9075239181
H    5.4308888340   -0.7477912404   13.9380164840
H    4.7723357015   0.8270348778   14.5090938012
C    9.3442222344   0.7642472123   11.2882571751
H    9.8990376278   1.6879283743   11.0659443931
H    8.9886286238   0.3130624771   10.3475908590
C    10.2037815979   -0.1999358554   12.0946900633
H    9.6185496134   -1.0939496140   12.3578769585
H    10.4852045465   0.2758044217   13.0479382353
C    11.4554447589   -0.5934102136   11.3145997975
H    12.0569438551   -1.3193814726   11.8789495064
H    12.0901704952   0.2823986439   11.1088849566
H    11.1963032906   -1.0466474923   10.3447458123
CL    6.4977655140   -0.6127010985   9.9280608671
CL    7.5254910147   -2.6971199333   13.9628141657
