54

N    1.3359168404   -0.9392725721   -3.0289277551
N    2.9396880147   -1.5760865792   -1.7012801468
C    2.6595782430   -1.1626774767   -2.9497442479
H    3.3576672956   -1.0962232719   -3.7850860069
C    0.7592563935   -1.2256719122   -1.8163251680
H    -0.2956275731   -1.0583724858   -1.6313973412
C    1.7757623270   -1.6235190736   -0.9739465850
H    1.7695767768   -1.8692474531   0.0816147825
C    4.2800346795   -1.8639312276   -1.1890567641
H    4.4062091116   -1.2916253853   -0.2626938211
H    4.3745391647   -2.9408067353   -1.0021296731
H    5.0125196794   -1.5441214885   -1.9411912213
C    0.6432225960   -0.4813877236   -4.2393574783
H    -0.2401787064   0.0723352524   -3.8948080136
H    1.3156482179   0.2175530814   -4.7555925359
C    0.2869444839   -1.6340137725   -5.1696089130
H    1.2077801429   -2.1845456163   -5.4221244959
H    -0.3870457046   -2.3374712851   -4.6533721899
C    -0.3595643071   -1.0912544105   -6.4423782730
H    -0.6168461759   -1.9063396464   -7.1326193867
H    0.3318947949   -0.4071257791   -6.9563099061
H    -1.2834691481   -0.5395106108   -6.2099064876
N    1.4300929245   2.2724326776   -0.0840071589
C    2.2877670213   1.3378011021   0.2950485748
N    3.1367488951   0.5819686560   0.6615199431
C    0.5421206597   1.9110938320   -1.0010761372
N    -0.2705591332   1.6858793945   -1.8465535518
C    3.5207293864   2.9012423976   -2.4099638731
H    2.9119774837   2.9154226333   -1.5013140954
N    4.7531612656   2.3790841607   -2.5460645683
N    3.1497110054   3.4055764566   -3.6014683260
C    4.1563688415   3.1970236722   -4.5125986253
H    4.0557640069   3.4634601053   -5.5587613738
C    5.1754249431   2.5553120877   -3.8420824216
H    6.1306245429   2.1730017269   -4.1845558746
C    5.5409687583   1.7591279883   -1.4760300366
H    6.0959899280   0.9261983739   -1.9228103716
H    4.8535881590   1.3945855408   -0.7018833362
H    6.2291032024   2.5035718570   -1.0556470169
C    1.8423385849   4.0159895493   -3.8851472040
H    1.4073300707   4.2957021130   -2.9152139009
H    2.0354393773   4.9368726947   -4.4555775217
C    0.9244314286   3.0622625074   -4.6358701149
H    0.7714356154   2.1862821990   -3.9936868825
H    1.4112339037   2.7278044136   -5.5637692376
C    -0.4258693480   3.7149683253   -4.9132182813
H    -1.0771989065   3.0245936778   -5.4673081232
H    -0.9351520545   3.9704689965   -3.9723142333
H    -0.3194054872   4.6304616934   -5.5164683694
N    4.5500805879   -0.8638668933   -5.5904827039
C    5.4516476676   -0.5850803063   -4.6653382767
N    6.2532601008   -0.4530063990   -3.7888850680
C    3.7702746298   0.1288670296   -5.9936666044
N    2.9887247913   0.9407639072   -6.3888135989
