46

N    0.6010272195   1.6336332274   0.5137376147
C    0.6441732279   0.9005128959   1.6398007146
H    -0.1938057145   0.6253232707   2.2826836391
N    1.9347547409   0.7458750877   1.9817643175
C    2.7231147327   1.3829612093   1.0495920603
H    3.8063356801   1.3838096419   1.1118512529
C    1.8805173904   1.9466166650   0.1121062973
H    2.0504166139   2.5835885666   -0.7606618160
C    -0.6267408493   2.0066392034   -0.1877050354
H    -0.3867056786   2.8569823006   -0.8397339244
H    -0.9786884627   1.1573632698   -0.7877425224
H    -1.3839625756   2.2716921325   0.5629617499
C    2.3883905878   0.1011696263   3.2213273817
H    1.4927076138   -0.3219549601   3.6922688136
H    3.0812862506   -0.7068043585   2.9401922132
C    3.0398471623   1.0910025813   4.1792125262
H    2.2798526977   1.8333243503   4.4590959088
H    3.8824855152   1.6018881815   3.6834865730
C    3.5163900693   0.3705393775   5.4381977885
H    3.9922941326   1.0757153073   6.1332207548
H    2.6628045657   -0.0885799760   5.9574986319
H    4.2478889768   -0.4187084492   5.2041094157
CL    -0.5073502932   1.5135424869   4.4733490887
N    0.0385367306   4.3779748559   2.0673007657
C    -0.0502312912   5.0507778333   0.9075185664
H    0.7570496715   5.2703034024   0.1963925971
N    -1.3548808904   5.2158040061   0.6290791904
C    -2.1042693554   4.6503540466   1.6357247750
H    -3.1895499528   4.6665536945   1.6262898528
C    -1.2230039307   4.1132510662   2.5545646788
H    -1.3589228880   3.5020130892   3.4514006891
C    -1.8456554482   5.8497333511   -0.5943065120
H    -2.7594308858   5.3329379375   -0.9097583809
H    -2.0640367842   6.9083943149   -0.4062549189
H    -1.0627848240   5.7351034637   -1.3569868727
C    1.3044146388   4.0120833653   2.7109493777
H    1.2756416319   2.9303955906   2.8896444075
H    2.0965353179   4.2709769719   1.9930208197
C    1.4844316514   4.7344532841   4.0394206313
H    0.7208987229   4.3622821931   4.7395061223
H    2.4577635242   4.4109142205   4.4441078423
C    1.4448234273   6.2541241753   3.9118769930
H    1.6284319674   6.7342571496   4.8832656439
H    0.4637034988   6.5997340219   3.5525399633
H    2.2091856990   6.6151517180   3.2057737530
CL    1.2260561648   4.5675146120   -1.8892934292
