46

N    3.1442229838   4.6846280121   -3.1708472905
C    3.4010690207   4.4942289642   -1.8680715614
H    2.7068482439   4.2588734160   -1.0461922836
N    4.7264851073   4.5987599786   -1.6923339735
C    4.3137632272   4.9738176360   -3.8277311143
H    4.3425233871   5.2072191730   -4.8860480550
C    5.3192457911   4.9136658707   -2.8900848809
H    6.3891459325   5.0626112003   -2.9857513307
C    1.8086667927   4.8535990914   -3.7197826578
H    1.1018354028   4.2982043970   -3.0923505590
H    1.7838667248   4.4501206420   -4.7396439042
H    1.5746866738   5.9260767209   -3.7010036098
C    5.3907335142   4.5141297672   -0.3871251072
H    4.8897447728   3.7173683434   0.1788931657
H    6.4380467044   4.2385181964   -0.5824418249
C    5.2780836780   5.8279217712   0.3749791446
H    4.2078785149   6.0052015665   0.5313007576
H    5.6658229476   6.6578324397   -0.2351839535
C    6.0011885995   5.7186298247   1.7131759918
H    5.9408871331   6.6599423518   2.2792784149
H    5.5565434518   4.9181455949   2.3241036889
H    7.0702836194   5.4886865808   1.5769738231
CL    2.3798140321   3.7883799229   1.1165867251
N    1.5944406558   6.6777494616   2.1935076108
C    1.5453764105   6.7604486332   0.8561052525
H    2.3303650407   7.0645172706   0.1501048062
N    0.2953081330   6.4671442941   0.4717138401
C    0.3721298557   6.2701199761   2.6664171349
H    0.1917943667   6.0814027076   3.7186925262
C    -0.4581967629   6.1518035376   1.5748317030
H    -1.5000056868   5.8595753025   1.5029215853
C    2.8357943892   6.6881196674   2.9532432505
H    3.5127074154   7.4287693916   2.5121207140
H    2.6146572315   6.9683373958   3.9900167485
H    3.2698972876   5.6812426440   2.8904039546
C    -0.1408418454   6.4753441395   -0.9242727295
H    0.7565763987   6.2810234348   -1.5243470264
H    -0.8675857875   5.6577516236   -1.0419617204
C    -0.7180048976   7.8249841078   -1.3322966123
H    0.0323271744   8.5921463733   -1.0902121507
H    -1.6329478650   8.0372462743   -0.7534932053
C    -0.9952980284   7.8537302322   -2.8326888491
H    -1.4595032183   8.8045853866   -3.1296891276
H    -0.0459599702   7.7552968577   -3.3785535486
H    -1.6726952502   7.0392508891   -3.1362007609
CL    2.8625586945   7.6345389365   -2.0015030011
