54

N    -0.0679719253   1.0995424136   2.4157795453
C    -0.3932361150   0.7357017903   1.1669331831
H    0.3071638760   0.3507180586   0.4287313445
N    -1.7062030594   0.9650062443   0.9991354604
C    -1.1818946688   1.5854971437   3.0526557015
H    -1.1454832980   2.0083077620   4.0488586795
C    -2.2184715823   1.5055163817   2.1540106017
H    -3.2470680597   1.8368637739   2.2360179174
C    1.2798755933   1.0379554806   2.9769922424
H    1.9518832695   0.6505546882   2.2071724611
H    1.5754058441   2.0570640844   3.2421438945
H    1.2690340964   0.3871068872   3.8599998493
C    -2.4159262137   0.8332576974   -0.2754298659
H    -2.0585510300   -0.0854517485   -0.7628002342
H    -3.4794427782   0.6924871353   -0.0331449580
C    -2.1987819966   2.0560788579   -1.1609793223
H    -1.1267932645   2.1174325422   -1.3926774744
H    -2.4537510343   2.9479860756   -0.5724884398
C    -3.0292555655   1.9686186364   -2.4369532882
H    -2.8519557418   2.8456707693   -3.0755974389
H    -2.7709059062   1.0728179209   -3.0226353925
H    -4.1072543131   1.9295025313   -2.2151273421
F    3.3119840320   1.7780590240   -1.5392495882
B    2.3795549880   1.6103717235   -0.5329124990
F    2.1521565933   0.2356236219   -0.2340208728
F    2.8029263575   2.2545906152   0.6705818540
F    1.1167953443   2.1849033158   -0.9125525527
N    1.3298549929   5.2725589547   -0.9422405076
C    1.6434615718   4.7353380374   0.2403037062
H    1.0649850418   3.9898250638   0.7651710524
N    2.7998389685   5.2655444789   0.6512171035
C    3.2459943984   6.1610019717   -0.2937453415
H    4.1759283811   6.7076603289   -0.1820567546
C    2.3075346120   6.1722889049   -1.3022373177
H    2.2666718852   6.7351077476   -2.2283547105
C    3.4735042198   4.8678956678   1.8841634951
H    4.1339917026   4.0197163336   1.6776291097
H    2.6965692605   4.5772674568   2.5992861383
H    4.0333229301   5.7284745955   2.2673561552
C    0.0707678885   5.0090612004   -1.6419018787
H    -0.3258380081   4.0837392781   -1.2115147429
H    0.3093682350   4.8331034669   -2.7011259030
C    -0.9100964204   6.1587803592   -1.4448223718
H    -1.0040077889   6.3388950863   -0.3641163681
H    -0.5059375720   7.0761053963   -1.9053346887
C    -2.2711848766   5.8215624215   -2.0473016567
H    -2.9668472233   6.6655744541   -1.9417890795
H    -2.7113311258   4.9565657747   -1.5306186853
H    -2.1924642230   5.5808861525   -3.1194519650
F    -0.5106620581   5.9788944161   1.9672790116
B    -0.7902087223   4.6424644218   2.2795460917
F    -1.8646385753   4.5018284820   3.1532657275
F    0.3883243326   4.0380810784   2.8495883094
F    -1.0641652718   3.9363950385   1.0501326052
