54

N    -0.0847375371   0.7747984006   -0.0523862814
C    -0.1536439738   0.8273305035   1.2856042894
H    -0.8720737551   1.4100547687   1.8576424731
N    0.7806704322   0.0024723524   1.7834554867
C    0.8871713894   -0.1224147566   -0.4175662986
H    1.1039649405   -0.3503898269   -1.4551820900
C    1.4368032914   -0.6104348738   0.7444294442
H    2.2084674905   -1.3530088368   0.9098271966
C    -1.0427462546   1.4105427119   -0.9540859351
H    -1.4261112418   2.3156799055   -0.4754351697
H    -1.8700960360   0.7135052911   -1.1250598354
H    -0.5272571874   1.6495393237   -1.8914166287
C    1.0011030218   -0.3065920144   3.2041043015
H    0.6274049795   -1.3252385870   3.3577708855
H    2.0896556323   -0.2861376428   3.3655843806
C    0.3011093471   0.6703612060   4.1335714205
H    -0.7685549119   0.6919912118   3.8951927532
H    0.6977773609   1.6866710411   3.9746793239
C    0.5001573203   0.2436183898   5.5855409474
H    0.0281143527   0.9614777017   6.2701732829
H    0.0491770842   -0.7444566224   5.7608890999
H    1.5684354146   0.1829763466   5.8462311974
F    -0.3216941967   -2.8363110024   1.7889140302
B    -1.5826581311   -2.2310212583   1.7851674678
F    -2.6275165665   -3.1699946129   1.8425405996
F    -1.7470320402   -1.4155042972   0.6354834468
F    -1.6884977667   -1.3767340796   2.9481363040
N    -5.1971541054   -0.5928394221   1.3894944994
C    -4.4905130536   -0.4217231431   2.5160265434
H    -3.5500218014   -0.9145894938   2.7536936661
N    -5.1233524039   0.4912222267   3.2693462437
C    -6.2814741717   0.2476732626   1.4064516723
H    -6.9849124712   0.3012604319   0.5831681058
C    -6.2365115470   0.9330748837   2.5976380399
H    -6.8831353901   1.7038205140   3.0003645675
C    -4.7528639586   -1.3896387423   0.2481053575
H    -4.1470154486   -2.2219885977   0.6160856987
H    -4.1406358825   -0.7518239231   -0.3982399522
H    -5.6402806511   -1.7541686953   -0.2819987056
C    -4.6522563427   1.0390214165   4.5497191459
H    -4.2802463808   2.0473306024   4.3355255809
H    -5.5339094980   1.1044255617   5.2052902120
C    -3.5697980556   0.1874830488   5.1917571494
H    -2.7284504325   0.0848739413   4.4962676591
H    -3.9603057066   -0.8240086672   5.3909540707
C    -3.0945594777   0.8373900223   6.4887563688
H    -2.3315992669   0.2167325684   6.9780708606
H    -2.6540158884   1.8251591521   6.2868868778
H    -3.9243225723   0.9731777231   7.2000120679
F    -4.2640461405   3.2426313329   2.2719068396
B    -3.1501190233   2.5791528912   1.7485770898
F    -2.2171529698   3.4656035324   1.1789477091
F    -3.5415767613   1.6213519721   0.7788443440
F    -2.4860930617   1.8735148563   2.8234921959
