54

N    -1.2772693530   -0.8751183303   -1.2411668777
C    -0.1728437447   -1.6072049343   -1.0162631182
H    0.4258195532   -2.1338443699   -1.7649134546
N    0.0663198163   -1.6039748658   0.3077675685
C    -1.7468683570   -0.3948160384   -0.0434899520
H    -2.6066743822   0.2629720469   0.0147111963
C    -0.8953241592   -0.8513856257   0.9392717906
H    -0.8665310633   -0.6385213616   2.0033793035
C    -1.8534203606   -0.5885570299   -2.5547900044
H    -2.0522240030   0.4887992316   -2.5933021925
H    -1.1185076795   -0.8548556712   -3.3252626897
H    -2.7757587770   -1.1692198776   -2.6851549704
C    1.2550480965   -2.1933253935   0.9402657099
H    1.7202773388   -2.8491550742   0.1921318495
H    0.9117187006   -2.8075726472   1.7857699755
C    2.2267865059   -1.1065244580   1.3815179717
H    2.4235300811   -0.4759714210   0.5030091948
H    1.7490436256   -0.4699752082   2.1413550577
C    3.5250320394   -1.7100788001   1.9063123190
H    4.0332240087   -2.2809512303   1.1163669483
H    4.2049961973   -0.9183973567   2.2525635881
H    3.3363217585   -2.3759221111   2.7632280543
N    0.8600560305   2.1563275402   0.3816124452
C    -0.1000420936   2.2213276705   -0.5233210066
N    -0.8514772314   2.3068341614   -1.4497570470
C    0.5039941511   1.8683301138   1.6320738982
N    0.2894186918   1.5637107124   2.7632953327
C    2.5513396472   2.2431689383   -2.1313545983
H    2.1185889231   2.8473651867   -1.3391378357
N    3.5542614944   1.3675182390   -1.9573353174
N    2.1655911448   2.1922358782   -3.4172654781
C    3.8192249417   0.7446498373   -3.1531386180
H    4.5638197925   -0.0390274048   -3.2353205341
C    2.9368874499   1.2633588672   -4.0769458039
H    2.7668954903   0.9969592825   -5.1136479626
C    4.2388763892   1.1328683274   -0.6860146187
H    3.5876879462   1.5056497923   0.1132831175
H    4.3932145841   0.0518219330   -0.5847553106
H    5.1972933275   1.6684232175   -0.6817494141
C    1.0551233889   2.9709981996   -3.9871335200
H    0.6338520873   3.5531543663   -3.1577425783
H    1.4774164163   3.6596205136   -4.7351015926
C    -0.0164420510   2.0692893800   -4.5817949098
H    -0.2732623621   1.3195083412   -3.8250750924
H    0.3768360692   1.5221237490   -5.4508101485
C    -1.2491748037   2.8859004331   -4.9557892750
H    -2.0100501794   2.2445553916   -5.4223909561
H    -1.6876242303   3.3439390620   -4.0572674056
H    -1.0042896788   3.6847503620   -5.6738069938
N    1.9635700244   -2.7167865771   -3.1140358451
C    2.9280743373   -2.2781928360   -2.3221150620
N    3.7822164046   -1.9742398045   -1.5443883241
C    1.4545637452   -1.8373617576   -3.9669926559
N    0.8944343062   -1.1095705884   -4.7297541540
