54

N    8.6730657380   3.5402457059   -5.2908384264
C    7.3850020244   3.7235844303   -5.6007308180
H    6.5839413448   3.9173320263   -4.8994239977
N    7.2533983043   3.6156810478   -6.9272861280
C    8.4863223776   3.3775273810   -7.4838200335
H    8.6279826369   3.2649946400   -8.5529942498
C    9.3903958969   3.3401236193   -6.4451149926
H    10.4654773146   3.1998736412   -6.4442666850
C    9.2039832498   3.6939384955   -3.9405057827
H    9.5316451546   4.7292085588   -3.8033373194
H    8.3939580889   3.4641222796   -3.2401589401
H    10.0295936987   2.9859137815   -3.8047749051
C    5.9644821060   3.7045147645   -7.6163104644
H    5.3674695757   4.4274964884   -7.0484555019
H    6.1633080091   4.1222836696   -8.6142426632
C    5.2752003483   2.3471059717   -7.6926940746
H    5.2051625055   1.9322280536   -6.6774435032
H    5.8856369708   1.6594377472   -8.3018703110
C    3.8741084570   2.4848048475   -8.2814832318
H    3.3961327005   1.5012314410   -8.3875618000
H    3.2447855259   3.0934821481   -7.6168093661
H    3.8950776196   2.9595519491   -9.2756209654
F    7.6350473457   6.2051597214   -4.0383904145
B    7.4236803182   6.7648323876   -5.3463289270
F    7.3735625979   8.1583203707   -5.2596842266
F    8.4497244253   6.3267949699   -6.1961131250
F    6.1661028160   6.2612568030   -5.8261040194
N    4.9021513314   6.4735411520   -2.7976058983
C    3.8712842032   6.0411801275   -3.5374361347
H    3.3910187436   5.0723980245   -3.4288469060
N    3.5784643269   6.9961565458   -4.4362845637
C    5.2898789506   7.7127218215   -3.2394265779
H    6.1563477630   8.2269875289   -2.8436205243
C    4.4559376200   8.0415885645   -4.2808077481
H    4.4645591693   8.8988011480   -4.9435253027
C    5.5590064571   5.6992946777   -1.7466612812
H    5.0393039754   4.7427488971   -1.6508029174
H    6.5919857284   5.5270337844   -2.0627537504
H    5.5202182815   6.2669379487   -0.8087977312
C    2.6031748946   6.8470801702   -5.5186164011
H    2.3296930928   7.8622886361   -5.8408039307
H    1.7034737421   6.3771944805   -5.0948770122
C    3.1650278821   6.0201450168   -6.6709048904
H    3.4252758415   5.0315360778   -6.2699719813
H    4.1009392547   6.4844585205   -7.0116438833
C    2.1524934077   5.9057582361   -7.8058600851
H    2.5609842930   5.3080194320   -8.6327431837
H    1.2250238521   5.4168055717   -7.4694152677
H    1.8865641984   6.8956767529   -8.2087626827
F    5.8686659790   3.0444045105   -3.1639704733
B    4.5973430017   2.7387730631   -3.7386926410
F    4.5069988565   1.3992128520   -4.0739360996
F    3.5851913277   3.1467000942   -2.8316080744
F    4.4641566751   3.5476294273   -4.9293091831
