46

N    -4.8507393510   1.3367272836   2.6759643080
C    -3.5516872841   1.3583574936   3.0100786048
H    -2.6683068829   1.4296849576   2.3525589692
N    -3.4648667211   1.1953006770   4.3362080016
C    -4.7276504574   1.1207379485   4.8685149217
H    -4.9055872746   1.0205125240   5.9334225421
C    -5.6082973031   1.2177677429   3.8164071073
H    -6.6916274133   1.2309951658   3.8062368085
C    -2.2103617910   1.2794268342   5.0757087807
H    -2.1611364605   0.4588799737   5.8023413611
H    -2.1785967319   2.2494276413   5.5884349565
H    -1.3932445085   1.1997689721   4.3444672377
C    -5.3389754117   1.7152513899   1.3536845285
H    -4.4728540328   1.6622194003   0.6787421376
H    -5.6550631124   2.7672376842   1.4240050356
C    -6.4546767084   0.8119552382   0.8489874184
H    -6.1025040748   -0.2317359323   0.8375917842
H    -7.3135042156   0.8561085770   1.5374081264
C    -6.8971501569   1.2436150188   -0.5478102546
H    -7.7152956548   0.6112670004   -0.9187327423
H    -7.2485017705   2.2865404620   -0.5422010912
H    -6.0643152688   1.1716280470   -1.2637505050
CL    -0.5160011711   1.2738077704   1.9390929825
N    -1.5605347048   4.3469973286   0.8443945075
C    -1.2669218592   4.2726026679   2.1487128811
H    -2.0363171940   4.1969086028   2.9289878936
N    0.0623341553   4.3822058601   2.2803676922
C    -0.3982097630   4.4643855089   0.1229640946
H    -0.3883204859   4.5159057956   -0.9601841936
C    0.6329639499   4.4702214310   1.0345784428
H    1.7067216883   4.5111420491   0.8902680166
C    0.7676923627   4.0833124540   3.5177608116
H    1.7245482126   4.6183210498   3.5247833292
H    0.1541133146   4.4246548659   4.3598179128
H    0.9115621873   2.9952943177   3.5603596326
C    -2.9217408033   4.2428765493   0.3209048401
H    -3.5187477671   3.7910965173   1.1230788139
H    -2.8841816937   3.5771439120   -0.5546813946
C    -3.5207204920   5.6026938475   -0.0129073105
H    -3.4221009657   6.2380781773   0.8799614469
H    -2.9630377486   6.0777145317   -0.8378894928
C    -4.9993113209   5.4513656883   -0.3622685119
H    -5.4368838820   6.4143725009   -0.6607052022
H    -5.5449857643   5.0872117493   0.5204515567
H    -5.1469820438   4.7422191193   -1.1930276619
CL    -4.2532756272   4.3746636035   3.4417708728
