56

C    -0.5004111389   -0.0764852840   0.2939455392
H    -1.1808070095   -0.8995424010   0.0383682182
H    -1.1066602863   0.8371678674   0.3689406865
C    1.7531798199   -0.3269361083   1.2166540771
H    2.4252447016   0.0881972920   1.9779541574
H    2.0966215603   -1.3214769760   0.8944920599
N    1.8042701685   0.5236849046   -0.0194744436
C    1.6730548672   1.9776006385   0.2722884512
H    2.5169180409   2.2934468427   0.8959487719
H    0.7337010952   2.1554063581   0.8080120335
H    1.6731024461   2.4998568843   -0.6952946278
C    3.0280883719   0.2632578373   -0.8568843307
H    2.8921266861   0.8997346207   -1.7439244677
H    2.9581544029   -0.8016414605   -1.1256722685
C    0.5861660169   0.0436680132   -0.7731305642
H    0.4077141623   0.7415605551   -1.6017070110
H    0.8684847320   -0.9523781406   -1.1399325091
C    4.3582952250   0.5404971394   -0.1770073028
H    4.4611709807   1.6014915288   0.1006484425
H    4.4655509414   -0.0600845384   0.7404774407
C    5.4704842166   0.1634123259   -1.1596767076
H    6.4640182708   0.3504706380   -0.7285152239
H    5.4036764541   -0.9033198370   -1.4207795119
H    5.3829522268   0.7556120786   -2.0836437069
C    0.2715726179   -0.3497758548   1.6126249343
H    0.0220151507   -1.3266335313   2.0460631314
H    0.0467596811   0.4135879093   2.3706316791
CL    2.2668356275   -3.1295925123   -1.2783285049
C    3.6607251223   -0.5788937724   -6.3424097972
H    3.9109624913   0.3983856787   -6.7745172895
H    3.8849793766   -1.3413749838   -7.1014563743
C    3.3461779603   -0.9724367281   -3.9568289849
H    3.5238105476   -1.6699996971   -3.1277790932
H    3.0651585132   0.0242185186   -3.5906617073
N    2.1274263463   -1.4513889617   -4.7101215066
C    2.2570281036   -2.9054868046   -5.0017046007
H    1.4115886048   -3.2208369005   -5.6234847698
H    3.1950706702   -3.0841734330   -5.5394342130
H    2.2584892862   -3.4274644334   -4.0339740531
C    2.1790410126   -0.6010003085   -5.9463980890
H    1.5068589149   -1.0160598507   -6.7076415663
H    1.8359248220   0.3937299171   -5.6245154262
C    0.9040753272   -1.1896464717   -3.8724473757
H    1.0384946999   -1.8278225262   -2.9864127054
H    0.9762949807   -0.1253423804   -3.6019851947
C    -0.4267722771   -1.4622869631   -4.5529068662
H    -0.5324290520   -2.5223811801   -4.8329753127
H    -0.5325034404   -0.8593276193   -5.4689999408
C    4.4326547592   -0.8543726140   -5.0241571843
H    5.1151575688   -0.0330750150   -4.7685346242
H    5.0366722388   -1.7694605853   -5.0996778866
C    -1.5378981843   -1.0842928346   -3.5693716284
H    -2.5319609628   -1.2676981413   -4.0008849829
H    -1.4681471221   -0.0182658007   -3.3061647422
H    -1.4519027175   -1.6785733891   -2.6466021949
CL    1.6654623819   2.2021004884   -3.4513703332
