64

C    1.3818907235   -1.8812510271   -4.2539685420
H    0.6735735391   -1.0550906718   -4.1229974732
H    0.8267298649   -2.7481406955   -4.6389858823
C    2.0480660113   -2.1945328382   -2.9170944044
H    2.1657413539   -1.2744595021   -2.3373339111
H    1.5926554503   -2.9767472092   -2.3022185823
N    3.4513374343   -2.6231207959   -3.2759674254
C    3.4255367883   -4.0263705817   -3.7729749506
H    4.4271314738   -4.2966176993   -4.1240445479
H    3.1045849263   -4.6690631181   -2.9462844557
H    2.7181043851   -4.0883951866   -4.6075432593
C    3.8211021524   -1.6620752449   -4.3767494122
H    4.1035911985   -0.7292460190   -3.8773106386
H    4.6749392268   -2.0670768322   -4.9341125712
C    4.3325551388   -2.4667334018   -2.0619017635
H    4.3319411348   -1.3870159536   -1.8748993216
H    3.8194479263   -2.9916548026   -1.2498056042
C    5.7597915660   -2.9974436873   -2.2120816912
H    6.1020534545   -2.9298391253   -3.2581675089
H    6.4074904474   -2.3025112118   -1.6547762545
C    5.9530086508   -4.4059054097   -1.6468390611
H    5.4011429624   -5.1672376742   -2.2146932740
H    7.0163540988   -4.6859685404   -1.6516633176
H    5.5839299916   -4.4501066131   -0.6115678845
C    2.5416645414   -1.4867058633   -5.2028463471
H    2.4629627351   -0.4400857421   -5.5185059772
H    2.5527820857   -2.1174729404   -6.1026618745
F    2.1558362120   0.8066813415   -3.1619335000
B    3.1998316289   1.6530302784   -2.6612958892
F    3.6143074036   2.5485944784   -3.6221053764
F    2.7125868065   2.2984754869   -1.4938584598
F    4.2835133353   0.7863056694   -2.2697591707
F    3.2048428566   -3.5496153257   0.7940244092
B    2.0159557216   -4.1467101077   0.2689436802
F    1.4341603099   -4.9976417858   1.1833577929
F    2.3434209549   -4.8019439991   -0.9484214881
F    1.1132974056   -3.0640812064   -0.0544632680
C    2.9657816460   -0.4079747931   0.4670750256
H    3.2462612841   0.2183064279   -0.3872858902
H    2.7746954460   -1.4381145237   0.1512459498
N    1.6299069611   0.1152628035   0.9269202328
C    1.0832216322   -0.7207557217   2.0344390324
H    1.0586463576   -1.7589197472   1.6868026713
H    0.0735441476   -0.3707351976   2.2763947313
H    1.7292687298   -0.6131890062   2.9117635101
C    1.6723384276   1.5690003825   1.3094982468
H    2.3260477428   2.0526821257   0.5750464747
H    2.0888133039   1.6634632642   2.3194042405
C    0.6690729870   0.1082951395   -0.2384452876
H    1.2274740430   0.5071070546   -1.0917117686
H    0.3680398251   -0.9296613745   -0.4205736037
C    4.0649895635   -0.3881716350   1.5167065456
H    4.2289431614   0.6367303343   1.8867969415
H    3.8011947470   -1.0268580942   2.3723030944
C    -0.4433249892   1.0737022453   0.1711273940
H    -0.8302703939   1.5880205232   -0.7175689781
H    -1.2862140654   0.5466949219   0.6386391335
C    5.3526548549   -0.9209529493   0.8818815577
H    6.1907275863   -0.8568942519   1.5899387969
H    5.6109761083   -0.3393465136   -0.0157304232
H    5.2168664200   -1.9758393282   0.6073551733
C    0.2249752038   2.0561809566   1.1680595640
H    0.2223824451   3.0876892496   0.7940351780
H    -0.2963320725   2.0547402666   2.1351016668
