64

C    0.2019231582   -0.6274407952   0.4130375864
H    0.2828491984   -1.6561325884   0.0412884384
H    -0.7580223571   -0.1821905784   0.1240080178
N    0.2748696061   -0.7292961026   1.9134197904
C    -0.1069795897   0.5459321511   2.5838011709
H    0.5936831103   1.3296955535   2.2766939242
H    -1.1258056891   0.8218203758   2.2910743332
H    -0.0315112106   0.3890434249   3.6662641217
C    -0.5368080273   -1.8801208506   2.4477628846
H    -0.3378478049   -1.9012157715   3.5265605197
H    -0.1146624601   -2.7756471089   1.9736126521
C    1.7473917375   -0.9732766720   2.1572466461
H    1.9591912178   -0.7077131307   3.1946643037
H    1.9107933592   -2.0360041781   1.9696198331
C    -2.0299078207   -1.7827818470   2.1689440608
H    -2.4618956834   -0.8862685482   2.6391830422
H    -2.2161534258   -1.7128563034   1.0860101071
C    1.4341784106   0.1814019599   0.0150986054
H    1.7793749059   -0.1462700457   -0.9718142292
H    1.2036360741   1.2549403435   -0.0374159003
C    -2.7293637005   -3.0257164349   2.7216006586
H    -3.8101443160   -2.9840232547   2.5289090940
H    -2.3331442579   -3.9384142452   2.2531874662
H    -2.5820805302   -3.1068175189   3.8088521084
C    2.4786920670   -0.1191269822   1.1177796177
H    3.3205804928   -0.6943575077   0.7169795014
H    2.8665323982   0.8065246514   1.5648048631
F    2.3574329204   -2.5931866807   -0.6226914787
B    2.4683732482   -3.7791809218   0.1314722800
F    2.8189336264   -4.8742472762   -0.6267717450
F    1.2042462330   -3.9995762234   0.7941062416
F    3.4434806252   -3.5583202044   1.1786578177
C    3.4124779768   -4.0867999843   6.0072145187
H    2.5240343204   -3.5401458111   6.3442367655
H    3.3744627980   -5.1320597143   6.3373209278
N    3.3810336051   -4.0396970636   4.5034257658
C    4.3391792517   -5.0064688209   3.8979247565
H    4.0798391544   -6.0209812288   4.2187474670
H    5.3506538955   -4.7600282391   4.2395520208
H    4.2666652802   -4.9036276158   2.8085568267
C    1.9958631045   -4.2346314729   3.9462451823
H    2.0855393037   -4.0898079338   2.8650883441
H    1.3962161961   -3.4250467386   4.3829019731
C    3.8431009430   -2.6314600181   4.2159999660
H    2.9841157901   -1.9957349592   4.4274478048
H    4.1154384458   -2.5720781129   3.1561774773
C    1.3649976563   -5.5872137649   4.2379488593
H    1.9572758390   -6.4008483727   3.7924825310
H    1.3064362336   -5.7697462281   5.3228611277
C    4.9526427863   -2.3532897981   5.2288898097
H    4.8773122087   -1.3071370030   5.5474431232
H    5.9505153263   -2.5130151138   4.7977639047
C    4.6824239191   -3.3294603851   6.4017722168
H    4.5027229795   -2.7931125097   7.3402321190
H    5.5264315973   -4.0170325687   6.5525772729
C    -0.0399362325   -5.6026326099   3.6303687626
H    -0.5285648990   -6.5732366771   3.7929358472
H    0.0143359759   -5.4120663100   2.5492566633
H    -0.6673300751   -4.8247287030   4.0907795610
F    2.4710390118   0.1310131068   5.0657359513
B    1.6340311014   -0.5480649966   5.9991917259
F    0.8021197660   0.3321553975   6.6606999724
F    2.4398011328   -1.3144619955   6.8674664389
F    0.8287100898   -1.4802504443   5.2207679867
