64

C    -1.2643144853   0.7705267516   -0.6169078035
H    -2.0079822102   0.2024697434   -0.0438268924
H    -1.8079776272   1.5036715159   -1.2283661100
C    1.0895134993   0.2125065877   -1.0669457213
H    1.8067300767   0.2690161192   -1.8946947585
H    1.4573074805   -0.4788435586   -0.2956946654
N    0.9951849936   1.5610056593   -0.4004200006
C    0.9129541203   2.6571107500   -1.4081766653
H    1.8434803297   2.6730097180   -1.9857002452
H    0.0695622397   2.4545162906   -2.0774041514
H    0.7508014756   3.5988864324   -0.8671369170
C    2.1158962008   1.7994930860   0.5800140334
H    1.8407011503   2.7129822717   1.1244671925
H    2.0889740780   0.9282199414   1.2505920881
C    -0.3104074197   1.4548211722   0.3532684479
H    -0.1010736486   0.7846045556   1.1927772566
H    -0.5911062162   2.4552209449   0.7069963822
C    3.5004857441   1.9362277514   -0.0358657667
H    3.5924505650   2.8914038681   -0.5751148339
H    3.6821032193   1.1251342240   -0.7597839109
C    4.5498960209   1.8675597259   1.0775676373
H    5.5559380919   2.0428003331   0.6711211281
H    4.3562364792   2.6228720301   1.8542101347
H    4.5390974888   0.8724524361   1.5472031424
C    -0.3493301823   -0.1256698882   -1.4915339324
H    -0.5356552207   -1.1937849274   -1.3194919613
H    -0.5078053381   0.0656302536   -2.5617189041
N    1.6912820586   -1.2060843023   1.9482584922
C    0.6743051036   -1.3495648530   2.5638185398
N    -0.4005945158   -1.5119467007   3.3150279650
C    -1.3843727996   -0.6767064540   2.9882799032
N    -2.2722154235   0.0868701634   2.7551071050
C    -1.4666014514   2.2105226511   5.2059120711
H    -2.3809841918   1.6672760787   4.9391018179
H    -1.7191149658   2.9667843674   5.9617839819
C    -0.8169567809   2.8565294555   3.9557959522
H    -1.4367024414   2.7189532483   3.0624719898
H    -0.6491338604   3.9338503742   4.0870951673
C    0.5136581236   2.1302014153   3.7813014123
H    1.3316048686   2.7359441531   3.3791598006
H    0.3974288796   1.2042163997   3.2052638856
N    0.8927537840   1.6904457623   5.1754564018
C    1.3940533101   2.8562602482   5.9626885096
H    0.5948343304   3.6017955860   6.0339721851
H    1.6620275975   2.4983018733   6.9646226231
H    2.2558954637   3.2955496653   5.4451519920
C    1.9070644094   0.5774234932   5.1641670874
H    1.3913171372   -0.2930847398   4.7361200162
H    2.1319795566   0.3632213301   6.2212815067
C    -0.4264439596   1.2155104742   5.7338040698
H    -0.5835827090   0.2102613096   5.3221815327
H    -0.3409468079   1.1561938306   6.8271947603
C    3.1724142178   0.8906954753   4.3812199557
H    2.9107816163   1.0709624368   3.3306479730
H    3.6610541219   1.8035868132   4.7502420882
C    4.1250108716   -0.3015583513   4.4523203876
H    3.6712537484   -1.1863981058   3.9838874909
H    5.0593856702   -0.0746336259   3.9200154243
H    4.3868431153   -0.5448685863   5.4941844302
N    3.3563306082   4.2618175279   3.6984235770
C    2.4559805396   4.9163650511   3.2612118748
N    1.4429062079   5.6573789348   2.8450016710
C    0.7447529926   5.0905996143   1.8790763801
N    0.0637806684   4.6095841981   1.0224757727
