60

N    2.3412967565   -0.0891207183   1.2644216319
C    1.6598076632   -0.1340740868   0.1058510577
H    2.0566502952   -0.5107060926   -0.8329788776
N    0.4177003622   0.3306529733   0.3320005351
C    1.5299096261   0.4276446233   2.2410179315
H    1.8825726960   0.5981304624   3.2513860180
C    0.3127275423   0.6929943063   1.6529501183
H    -0.5907888290   1.1301026221   2.0627671172
C    3.7443938971   -0.4648259515   1.4374240696
H    4.1067205960   -0.8832921849   0.4903446114
H    4.2996840904   0.4400582723   1.7146803465
H    3.8103094595   -1.2173430367   2.2330646772
C    -0.6539391210   0.4498012541   -0.6693983147
H    -0.3463743753   -0.1258195040   -1.5514226869
H    -1.5500259589   -0.0127538419   -0.2293835580
C    -0.9029494397   1.9006432671   -1.0511527358
H    0.0137333644   2.3080071386   -1.4989770706
H    -1.1102472533   2.4999985261   -0.1494408853
C    -2.0558264208   2.0161533398   -2.0463305629
H    -1.7677967004   1.4979726304   -2.9754541094
H    -2.9394205368   1.4848978139   -1.6491177684
C    -2.4261570563   3.4706919444   -2.3283338668
H    -1.5546259757   4.0427470435   -2.6744120281
H    -3.2168240886   3.5397015116   -3.0897677611
H    -2.7872746167   3.9667978458   -1.4150421174
N    1.0954930753   3.9263347723   1.3867891295
C    2.2727762470   3.3654396338   1.5919061795
N    3.2855919698   2.7885623142   1.8584205747
C    0.9367351288   4.4625150581   0.1880970806
N    0.7241642557   4.9176560012   -0.8955771770
C    2.7510744932   2.8532095598   -2.2814657463
H    2.2954726728   3.3968613651   -1.4567735618
N    2.3323509068   2.9212445979   -3.5549889078
N    3.8486167140   2.0772332966   -2.2403298161
C    3.1675080080   2.1705535631   -4.3406971623
H    2.9945585035   2.0330905770   -5.4023182946
C    4.1364097530   1.6444555669   -3.5114602658
H    4.9670337280   0.9778684477   -3.7161438222
C    1.0873976905   3.5623849804   -3.9777381857
H    1.2795462794   4.1324909737   -4.8946586823
H    0.7648551903   4.2319749715   -3.1701711002
H    0.3492002750   2.7691247502   -4.1525470518
C    4.6491430083   1.8256773577   -1.0360393630
H    5.0438820851   0.8067427470   -1.1363168496
H    3.9655035813   1.8654336563   -0.1771210564
C    5.7497312190   2.8643311279   -0.8580087535
H    5.2925393031   3.8670774047   -0.8067742197
H    6.4205182249   2.8531926811   -1.7349564119
C    6.5418537529   2.6001216591   0.4220922108
H    5.8429220674   2.6286663749   1.2727023235
H    6.9689833419   1.5829353171   0.3801856693
C    7.6574899564   3.6210927309   0.6295661909
H    8.2151023149   3.4204279644   1.5554374415
H    7.2452258745   4.6389262488   0.7003837011
H    8.3736725556   3.6043004657   -0.2064364264
N    2.5986524094   -1.2893736171   -3.7774122231
C    3.3978466168   -1.3078323261   -2.7275933859
N    4.1517180117   -1.3470445089   -1.8007845234
C    1.6007514470   -0.4306173962   -3.6623234364
N    0.6878333594   0.3396015267   -3.6186898477
