52

N    0.6061921826   1.5964626839   0.4935652093
C    0.6305271044   0.8449984183   1.6082640118
H    -0.2166446981   0.5717602260   2.2405156229
N    1.9160975581   0.6709287810   1.9596347455
C    2.7202843389   1.3136267500   1.0452347805
H    3.8028323628   1.3014681134   1.1189391156
C    1.8928582471   1.8996095393   0.1077691558
H    2.0783661888   2.5482115581   -0.7531577558
C    -0.6112448065   2.0013763832   -0.2085495040
H    -0.9743733501   1.1679718809   -0.8240267145
H    -0.3528413173   2.8583268571   -0.8449440173
H    -1.3678909912   2.2674958182   0.5425014575
C    2.3517092337   0.0201259599   3.2026572143
H    1.4570041566   -0.4409302082   3.6382150263
H    3.0785467367   -0.7602359419   2.9303357501
C    2.9365846478   1.0186686473   4.1930086186
H    2.1406869221   1.7281257801   4.4599530882
H    3.7776713309   1.5680554251   3.7341100028
C    3.4004453438   0.3188450866   5.4687129820
H    2.5439533926   -0.2253345628   5.8988292177
H    4.1739215913   -0.4322962156   5.2308876656
C    3.9390634340   1.3154530399   6.4918105318
H    4.2609126025   0.8115896939   7.4143747574
H    3.1629762265   2.0483229818   6.7595776156
H    4.8035456565   1.8664267337   6.0895851345
CL    -0.5815876775   1.4231998360   4.4330923974
N    0.0512997905   4.3302604382   2.0935555037
C    -0.0107945126   5.0264423273   0.9460429765
H    0.8090115529   5.2437174238   0.2491424303
N    -1.3086492658   5.2219005782   0.6557045698
C    -2.0806161979   4.6527119630   1.6430687045
H    -3.1652099564   4.6896503723   1.6212021440
C    -1.2206252168   4.0815071238   2.5615741037
H    -1.3789052989   3.4547351987   3.4438032797
C    -1.7726514787   5.8874816195   -0.5613113618
H    -2.6917591865   5.3937160084   -0.8974653573
H    -1.9737692453   6.9463986247   -0.3560349295
H    -0.9829281944   5.7718470339   -1.3167213563
C    1.3018766878   3.9184384629   2.7392235510
H    1.2359515955   2.8359959482   2.9030568704
H    2.1060144774   4.1612701052   2.0293100188
C    1.4981841576   4.6152417059   4.0779837452
H    0.7162763542   4.2653781668   4.7714762103
H    2.4577398606   4.2531124144   4.4871140909
C    1.5182970224   6.1384130543   3.9823390268
H    0.5473890418   6.4957914108   3.5993127584
H    2.2773219848   6.4493867673   3.2429422102
C    1.8070116472   6.7964422638   5.3292162369
H    1.8071631748   7.8929860333   5.2505960969
H    1.0497443677   6.5088449368   6.0739603102
H    2.7898219859   6.4853907011   5.7150536842
CL    1.2867584372   4.5645760484   -1.8467216280
