60

C    0.4218516241   5.0894734950   3.4292946404
H    1.3923311768   5.3572178167   3.8318675631
N    -1.6893421161   4.5500564500   3.0764709726
C    -1.0458106080   4.4441907370   1.9086039534
H    -1.4851055224   4.1307614065   0.9673315746
N    0.2347052983   4.7785932507   2.1041095158
C    -0.8009231860   4.9503191790   4.0467162046
H    -1.0889309142   5.0793404998   5.0839562811
C    1.2616073463   4.6463389114   1.0746817013
H    0.7498761855   4.5404422594   0.1123245909
H    1.8497274553   3.7452001130   1.2786523295
H    1.8925007618   5.5434412095   1.0775740911
C    -3.1094059077   4.2370727900   3.2447740771
H    -3.4240053484   3.7684338708   2.3052245342
H    -3.1865771162   3.4866866066   4.0430573259
C    -3.9324930500   5.4837662518   3.5386371349
H    -3.7727841521   6.2137237833   2.7277526420
H    -3.5856583538   5.9573305235   4.4734257785
C    -5.4198685757   5.1542624127   3.6505943923
H    -5.7510988541   4.6804348162   2.7112687479
H    -5.5691981569   4.4071077234   4.4487561974
C    -6.2694804021   6.3903893871   3.9334397550
H    -7.3362620190   6.1358634392   4.0076889871
H    -6.1550222312   7.1350911928   3.1315710273
H    -5.9696339335   6.8661297543   4.8796304109
F    -1.8866896673   1.6506090744   2.4692963124
B    -0.4708845829   1.4170443009   2.3689641163
F    0.1866226742   2.0400994663   3.4295220709
F    -0.2291643418   0.0447042523   2.2978810984
F    -0.0416951067   2.0163350942   1.1288752367
F    -1.2466708297   4.2863411873   -1.0802650314
B    -2.6172285666   3.9348464614   -1.3078591233
F    -3.3362116750   5.0223274487   -1.7739345766
F    -2.6807725418   2.8360513330   -2.1856343952
F    -3.1549300067   3.5133121654   -0.0247467830
C    -4.8564711827   1.1612937708   -0.0990466252
H    -4.5510218846   1.4162817542   0.9203733558
H    -5.1475648044   2.0768529030   -0.6233717349
H    -5.6753167694   0.4320102487   -0.0786212504
N    -3.7087392354   0.5698730762   -0.7753584121
C    -2.4465346171   0.6764117665   -0.3405267288
H    -2.1417022666   1.1524005715   0.5872917462
N    -1.6426409249   0.1073925621   -1.2486857782
C    -3.7147298602   -0.0470602765   -2.0011692394
H    -4.6278122189   -0.2241261239   -2.5584586942
C    -2.4029349880   -0.3377752156   -2.3023640612
H    -1.9636304987   -0.8233229423   -3.1668805508
C    -0.1742477579   0.1332885241   -1.1805619519
H    0.0907075563   0.0930278393   -0.1185471815
H    0.1850159449   -0.7814307880   -1.6741884506
C    0.3627677810   1.4000812064   -1.8366051038
H    -0.2226015118   2.2546776220   -1.4751471746
H    0.2100795196   1.3470000194   -2.9286140416
C    1.8360649890   1.6281446328   -1.5122147404
H    1.9326921256   1.7025730693   -0.4179028585
H    2.4439273627   0.7631331611   -1.8313016625
C    2.3569786436   2.9003202281   -2.1778148044
H    3.3883344952   3.1290800295   -1.8703218560
H    1.7158963693   3.7580739553   -1.9230981263
H    2.3466839751   2.8042497405   -3.2743694259
