60

C    0.0333004973   4.2600375364   -1.0702946908
H    -0.3817728905   4.4810893571   -2.0470539333
N    1.2481459309   3.6389322218   -0.9226094302
C    1.4754863338   3.4210989718   0.3850646288
H    2.4013329661   3.0305105595   0.8078526974
N    0.4121957173   3.8764889997   1.0736520650
C    -0.4988681656   4.4071241857   0.1933728003
H    -1.4641042961   4.7745004505   0.5213058010
C    0.2385085049   3.7733418337   2.5239971499
H    -0.7658013845   3.3712112435   2.7059750165
H    0.3467132278   4.7681505128   2.9744421647
H    1.0050065033   3.0919447451   2.9151818482
C    2.1762899601   3.2784952177   -2.0000072508
H    1.5565909395   3.0596205465   -2.8794659265
H    2.6958398699   2.3618436134   -1.6896390895
C    3.2017435806   4.3763263996   -2.2548447734
H    3.7416696329   4.5822952867   -1.3149136859
H    2.6900190308   5.3082846666   -2.5517746070
C    4.1991117382   3.9478715484   -3.3303353046
H    4.6813037530   3.0122319780   -3.0038058844
H    3.6533436881   3.7233197940   -4.2630989716
C    5.2568058959   5.0163327074   -3.5939568853
H    5.9674218311   4.6921964280   -4.3673343487
H    5.8297748726   5.2308802251   -2.6793385063
H    4.7953390432   5.9569402134   -3.9319855276
N    2.8128599047   1.3424059060   3.1362806486
C    3.5709303140   1.7023873685   2.2860413526
N    4.3802115103   2.2399496014   1.3869564813
C    4.4754900454   1.6335601506   0.2164316882
N    4.5924162156   1.1893094694   -0.8868569526
N    -2.5048550253   2.4144498406   1.1352836857
C    -2.5101884592   1.8912744888   0.0609291651
N    -2.5599872052   1.2486368652   -1.0945533118
C    -1.5942717125   1.5386290538   -1.9422530657
N    -0.7072362482   1.7242860873   -2.7244500558
C    0.0824527790   0.2530627988   1.8198955458
H    0.6366172170   0.3807267299   2.7585301812
H    -0.3388195468   1.2226748001   1.5210029466
N    1.0735287961   -0.1328683879   0.8075220664
C    1.0033014754   0.1745915959   -0.4980390350
H    0.2586872579   0.7931669082   -0.9982979554
N    2.0122059130   -0.4472728844   -1.1313142483
C    2.7448433009   -1.1595151428   -0.2157868161
H    3.6464902593   -1.6952388888   -0.4899576185
C    2.1444743169   -0.9686310805   1.0113995830
H    2.4211819695   -1.3090587906   2.0031527907
C    2.2936248142   -0.3160421924   -2.5597990653
H    3.2708663927   0.1690649390   -2.6692154957
H    1.4940271223   0.2905443235   -3.0032331144
H    2.2984422389   -1.3146474755   -3.0142141274
C    -1.0326936835   -0.7817126569   1.9231414764
H    -1.5818742165   -0.8097126198   0.9664948964
H    -0.5919033274   -1.7816698619   2.0818038706
C    -1.9931483617   -0.4464469006   3.0633346350
H    -2.3738288946   0.5755589546   2.9129424601
H    -1.4376048500   -0.4539519900   4.0170317542
C    -3.1600460136   -1.4279105374   3.1327118655
H    -3.8387159309   -1.1827902021   3.9619962178
H    -3.7439717063   -1.4016223026   2.2004667535
H    -2.8046104433   -2.4596162117   3.2806444424
