62

C    0.9283714898   -1.1428195117   1.3119046403
H    0.7546321921   -2.2030616673   1.5383655094
H    -0.0534604365   -0.6527092052   1.2485074376
C    3.0776300494   -0.0227058572   1.6211337446
H    3.5329297027   0.9025095423   1.9942011557
H    3.8194232838   -0.8339973756   1.5684334713
N    2.6139543587   0.1744262136   0.2044567867
C    1.8182124412   1.4214903535   0.0303860271
H    2.4363069766   2.2828537470   0.3070342492
H    0.9372542605   1.3774200682   0.6808548453
H    1.5146242809   1.4642115468   -1.0255546532
C    1.7161822903   -1.0238141537   0.0068605469
H    1.1379592052   -0.8523595874   -0.9104766704
H    2.4090342170   -1.8712380499   -0.0919250273
C    3.7557596522   0.1284010038   -0.7838537867
H    4.2287957182   -0.8506843725   -0.6108331646
H    3.2750881112   0.1547613640   -1.7748085180
C    4.7422469233   1.2786751873   -0.6280036685
H    4.2763840709   2.2277660794   -0.9352188379
H    5.0635459233   1.3883447001   0.4218254410
C    1.8249677763   -0.4667760548   2.3820142085
H    2.1081305316   -1.1580087414   3.1859592454
H    1.3138268054   0.3883767690   2.8463960319
C    5.9869625590   1.0286597436   -1.4887294119
H    6.5669536137   1.9641400386   -1.5437602399
H    5.6620016255   0.8164056569   -2.5231957878
C    6.8751574035   -0.0887332573   -0.9443407534
H    6.3407266877   -1.0437201111   -0.8352295949
H    7.7488085564   -0.2501861345   -1.5923842904
H    7.2527300108   0.1852238037   0.0544580630
CL    4.5393140675   -3.1307475818   0.2484146030
C    0.7437548704   -3.5582613421   -2.2901842193
H    0.1820975289   -2.9194126921   -1.5948550051
H    0.6545441075   -4.5926533420   -1.9264642740
C    1.4635101489   -3.1019326673   -4.5892344695
H    1.5535191250   -2.0157446650   -4.7250997080
H    1.5285520812   -3.6345119127   -5.5479978991
N    2.6414180184   -3.5068709221   -3.7376092883
C    2.8573707562   -4.9750302885   -3.8168447711
H    3.5534423152   -5.2772493228   -3.0268888429
H    1.8958617996   -5.4816933175   -3.6787602715
H    3.2655912842   -5.2193550632   -4.8061965009
C    3.8741850790   -2.7453411589   -4.1477470747
H    3.6204569497   -1.6883945234   -3.9699741031
H    3.9813478002   -2.8991899819   -5.2341995817
C    2.1981602139   -3.1093235354   -2.3502901223
H    2.2426841749   -2.0126361757   -2.3608110367
H    2.8805705726   -3.5223539268   -1.5936140116
C    5.1272950766   -3.1713922134   -3.4001265986
H    5.4344678677   -4.1813230881   -3.7201804292
H    4.9460586124   -3.2053168811   -2.3115901431
C    6.2781471515   -2.2040370450   -3.6774016398
H    6.0215415094   -1.2221308018   -3.2479530367
H    6.3984577883   -2.0537742603   -4.7652930111
C    7.5822609432   -2.7171560468   -3.0732139687
H    7.4663528633   -2.8828951671   -1.9922457954
H    8.4084406423   -2.0089366137   -3.2324439865
H    7.8700425033   -3.6757414413   -3.5334901255
C    0.2225535786   -3.4158113455   -3.7425857680
H    -0.4726433545   -2.5721701646   -3.8319524957
H    -0.2905937468   -4.3278452139   -4.0787286264
CL    1.3444673907   0.0878709616   -3.3482348006
