70

N    0.4744335458   2.1513570685   0.5864035862
C    -0.8562590055   2.6154633064   0.1084252837
H    -0.7820191304   3.6588106635   -0.2164975041
H    -1.5731863119   2.5381423939   0.9339491802
H    -1.1589988915   1.9588212872   -0.7162933912
C    0.9431888261   2.9415519866   1.7785846203
H    2.0200831747   2.7554642863   1.8708211886
H    0.7629535229   4.0078848681   1.5936066172
C    1.4821185130   2.1526540178   -0.5354560885
H    1.0771881232   1.4807263854   -1.3010745509
H    2.3810226682   1.6819967956   -0.1155419168
C    0.3327480655   0.7504235786   1.1360350283
H    1.3503874301   0.3556501429   1.1555230628
H    -0.2816249334   0.1654828198   0.4499948385
C    1.8075351453   3.5273845007   -1.0944351927
H    2.1697462893   4.1991195692   -0.2992165800
H    0.9198879098   3.9962165913   -1.5498486855
C    -0.2305861272   0.9332355866   2.5430846035
H    0.2044386520   0.1802537375   3.2109913842
H    -1.3225309786   0.8079892185   2.5560063139
C    2.8961430181   3.3931629325   -2.1629156338
H    3.7916133508   2.9438439875   -1.7032775510
H    2.5542885282   2.6866919193   -2.9372873495
C    3.2526398878   4.7333265384   -2.7990450488
H    4.0384479786   4.6174821682   -3.5587889011
H    3.6183248970   5.4438944273   -2.0421641336
H    2.3755867597   5.1839468240   -3.2884229187
C    0.1761620478   2.3647288106   2.9718722816
H    0.8343723531   2.3527746778   3.8481636799
H    -0.7063056752   2.9738908876   3.2134802066
F    1.3678596884   -0.6738118014   -1.5690542702
B    0.0501046983   -1.2201422955   -1.6025989248
F    -0.0751369806   -2.1124824444   -2.6591881274
F    -0.8685417226   -0.1405510651   -1.6940449753
F    -0.1763356920   -1.9016694703   -0.3564805249
C    4.1329282036   -2.9197493502   1.9629651287
H    4.4633025435   -1.9355451889   1.6114545096
H    4.8557322299   -3.6916251790   1.6716244480
N    2.8205596994   -3.1878352868   1.2754935889
C    2.4440526829   -4.6201296821   1.3841112509
H    3.2037219428   -5.2317355903   0.8866358416
H    2.3800492612   -4.8994959393   2.4412067106
H    1.4704201320   -4.7562469519   0.8972616289
C    2.7941767127   -2.7320786300   -0.1622918815
H    2.9834650913   -1.6539266879   -0.1292009081
H    1.7615008537   -2.8765490640   -0.4943744235
C    1.8653647771   -2.3427335233   2.0840858394
H    2.0940571760   -1.3148264103   1.7989459236
H    0.8376502264   -2.5945466790   1.7966518731
C    3.7752941899   -3.4298594174   -1.0865001297
H    3.5838343617   -4.5150336872   -1.1317090924
H    4.8133255682   -3.2912960120   -0.7397074051
C    2.2804373544   -2.5679962246   3.5353961567
H    2.0902294990   -1.6539823785   4.1099098567
H    1.7223808168   -3.3919620057   4.0023833398
C    3.7993075481   -2.8782377509   3.4606120981
H    4.3955553988   -2.0856942208   3.9268700179
H    4.0371493916   -3.8305960060   3.9545692797
C    3.6249778702   -2.8487974539   -2.4973052904
H    2.5733135281   -2.9342475149   -2.8110902627
H    3.8354888554   -1.7686928028   -2.4614121944
C    4.5445365591   -3.5371696319   -3.5006589700
H    4.4273084846   -3.1063209746   -4.5051065136
H    4.3206191813   -4.6130094170   -3.5709082273
H    5.6015946598   -3.4323206374   -3.2105140113
F    2.6779372378   0.5714796177   3.1771471327
B    3.8534269164   0.7501453035   2.3826538187
F    4.9319218288   0.0830210749   2.9672514719
F    4.0866622775   2.1155618124   2.1894390350
F    3.5797573164   0.1446075839   1.0935907476
