70

C    1.2164914413   1.2294555233   1.3434071652
H    0.8223527166   2.2404804444   1.4990737236
H    0.9762024867   0.6499234396   2.2445064386
C    1.8034799312   0.2778382903   -0.8451541596
H    2.1559497126   -0.7513108727   -0.7062996967
H    1.6270352702   0.4706799508   -1.9120495995
N    2.9383807979   1.1592331316   -0.3812340562
C    4.2632555465   0.5142654434   -0.6542727278
H    4.2590198314   -0.4769362051   -0.1839891034
H    4.3890617229   0.4384772512   -1.7421745620
H    5.0374944918   1.1627094707   -0.2234828456
C    2.9617500308   2.5138127942   -1.0537743364
H    3.9380063485   2.9409418910   -0.7877846623
H    2.9449905733   2.3039994251   -2.1348401450
C    2.7270434693   1.2521347664   1.1137922400
H    3.2577168505   2.1399315964   1.4683859052
H    3.1938915395   0.3424202679   1.5093476477
C    1.8732004193   3.5011337491   -0.6693490302
H    1.8960789108   3.6807571930   0.4137569181
H    0.8713918192   3.1306809116   -0.9375850112
C    2.1298770044   4.8397604087   -1.3664050034
H    3.1573415363   5.1657796226   -1.1371973115
H    2.0681831404   4.7085252395   -2.4605875404
C    1.1464413290   5.9110752385   -0.9043662359
H    1.3212207836   6.8625773815   -1.4261245195
H    1.2614640136   6.0893677250   0.1747746194
H    0.1060542595   5.6060539775   -1.0959098620
C    0.6141212592   0.5682865524   0.0784868657
H    -0.1179447705   1.2285352402   -0.4041430923
H    0.1096401521   -0.3755149915   0.3233439661
N    0.1760164134   -1.0569772074   4.1388405836
C    0.5485000971   -1.7159635445   3.2152252231
N    0.9186350458   -2.4578099494   2.1827997761
C    2.1383933049   -2.1751735781   1.7635411840
N    3.2331018221   -1.9434008492   1.3388611280
C    5.2132448008   1.9703668634   4.9713828791
H    5.5221697464   2.9244824545   4.5244919522
H    6.0609943809   1.5910064086   5.5582676497
C    4.7781499864   0.9537796274   3.8841049693
H    5.0020796850   1.3263901237   2.8756465383
H    5.2935911345   -0.0090895210   4.0042298121
C    3.2758423427   0.7965189088   4.0900699781
H    2.8317707373   -0.1607308740   3.7978415277
H    2.7224435935   1.6274301944   3.6330725456
N    3.0799165633   1.0018641645   5.5700705867
C    1.6481887002   1.3142632274   5.8683576125
H    1.3963013666   2.2259032055   5.3112984407
H    1.0204420473   0.4786533960   5.5322030022
H    1.5543565482   1.4811453291   6.9491599182
C    3.9674136879   2.1921708477   5.8416473453
H    3.3999452587   3.0680128604   5.5030243416
H    4.1531852070   2.2504745896   6.9224870260
C    3.5654387695   -0.1697084282   6.3909875929
H    3.3074612648   0.1029822808   7.4245930517
H    4.6624605802   -0.1736139913   6.3136174625
C    2.9911830742   -1.5371011705   6.0179365265
H    1.9639840932   -1.4409108640   5.6313176978
H    2.9063087114   -2.1039621416   6.9603227076
C    3.8471615622   -2.3600545361   5.0488331471
H    3.9348934606   -1.8662434813   4.0693055854
H    4.8715585333   -2.4376457854   5.4557304396
C    3.2711389744   -3.7573958628   4.8319475047
H    3.9125995897   -4.3428445929   4.1586203238
H    2.2732240494   -3.7010671033   4.3739673058
H    3.1840302394   -4.3023050658   5.7850180454
N    5.4508013839   3.3660933987   1.0339335297
C    4.6489221171   4.1078318294   1.5206571604
N    3.7389682639   4.9417937590   2.0020327793
C    2.9477030271   4.3778227556   2.8977161212
N    2.1916272137   3.9024474676   3.6936470054
