70

C    -0.8466673116   1.9574273773   0.1671071854
H    -1.6911037434   1.6679798642   0.8054637290
H    -1.0223279773   2.9883912107   -0.1704479236
C    0.7226877019   0.3906806896   -0.8726037910
H    1.2547434845   0.2063650879   -1.8135271622
H    0.6772511770   -0.5215186079   -0.2642382832
N    1.4861551697   1.3953958256   -0.0515475710
C    1.9035388079   2.5617080519   -0.8781165295
H    2.5525050090   2.2064181972   -1.6855813432
H    1.0088787906   3.0291410041   -1.3051562769
H    2.4241070005   3.2660705540   -0.2171902004
C    2.6603710969   0.7822388586   0.6725230800
H    2.2170112667   -0.0332865926   1.2543988142
H    3.0086798490   1.5675020525   1.3566292409
C    0.4518703013   1.8318891882   0.9624307974
H    0.3691063287   0.9944147475   1.6648886361
H    0.8251015696   2.7351030543   1.4590426094
C    3.7859660594   0.2461479617   -0.2124844232
H    4.1922323529   -0.6174799690   0.3386412529
H    3.3764268648   -0.1646244786   -1.1503927068
C    -0.6767545200   0.9932102706   -1.0348492491
H    -1.4199595465   0.1861896365   -1.0219811577
H    -0.7778630098   1.5253112891   -1.9910538357
C    4.9501522837   1.2042059980   -0.5029746339
H    4.6219993863   2.0790509158   -1.0863380715
H    5.6679896077   0.6647290889   -1.1425319606
C    5.6626310492   1.6783686081   0.7646788337
H    5.0192993259   2.3414709384   1.3606696367
H    6.5714719487   2.2456575358   0.5149071436
H    5.9562796303   0.8155100138   1.3825320585
N    -0.1645514531   -1.1786413635   1.8742583935
C    0.7101701604   -1.8000462953   2.4033552425
N    1.6406020347   -2.5078853556   3.0194294053
C    2.8638130009   -2.0538037376   2.8178504272
N    3.9897633017   -1.6676863622   2.6960421566
C    6.5731627476   1.6373298302   5.8118542981
H    7.1534286263   2.5563700275   5.9554066579
H    7.0585351200   0.8210863492   6.3649639864
C    4.9218422830   1.2466369477   4.0262761939
H    4.5475661319   2.2033144298   3.6450318392
H    4.6072124804   0.4191663429   3.3776649497
N    4.2746253704   1.0566897777   5.3800892562
C    4.3387973654   -0.3805933308   5.7747157712
H    3.8977675597   -0.9912809551   4.9812357145
H    5.3909981654   -0.6602482860   5.8952459920
H    3.8065453100   -0.5016439180   6.7267990921
C    2.8586485666   1.5668036517   5.4082545789
H    2.5257869436   1.4482069250   6.4501626123
H    2.9252841252   2.6426985676   5.1826521066
C    5.1461156404   1.8731528207   6.3012280287
H    4.8604834691   2.9213142278   6.1553226437
H    4.9417917450   1.5659786969   7.3359897715
C    1.9206284398   0.8630270079   4.4380690145
H    2.3287145768   0.9416488948   3.4193180846
H    1.8313152819   -0.2085782332   4.6764224685
C    6.4275167115   1.2955410518   4.3072597981
H    6.8876990416   2.0743805273   3.6873074088
H    6.8992336308   0.3324718614   4.0669216159
C    0.5260279641   1.4996494421   4.4619161496
H    -0.1015046361   0.9418191676   3.7514110473
H    0.5978038781   2.5381517241   4.0968835486
C    -0.1473124351   1.4660519750   5.8344827992
H    -1.1887078931   1.8116340225   5.7654661175
H    0.3588471188   2.1131969003   6.5666177850
H    -0.1629381118   0.4403954627   6.2363018252
N    6.1416915153   4.5459651077   4.6715618203
C    5.0026115555   4.6871526785   4.3483114619
N    3.7046896039   4.8428186510   4.1037836037
C    3.2640883688   4.2808667600   3.0021727363
N    2.7742467430   3.7569296256   2.0437657040
