70

N    1.8700957396   1.2704162001   -1.2393941732
C    0.6595246921   2.1341052003   -1.3560793681
H    0.3992953946   2.2311035422   -2.4154684624
H    0.8838333752   3.1217953565   -0.9389035915
H    -0.1493528706   1.6575933133   -0.7906881336
C    3.0797826287   1.9168897223   -1.8565708992
H    3.9378157644   1.3147782147   -1.5346627760
H    3.1702477839   2.9465174947   -1.4891664324
C    2.1053070472   0.8535918115   0.1896488963
H    1.2804202174   0.1831101901   0.4398610683
H    3.0492511850   0.2958028063   0.1673282457
C    1.6922749433   0.0456951178   -2.1032709866
H    2.4668041086   -0.6532304630   -1.7893527532
H    0.6989435889   -0.3719952728   -1.9059576712
C    2.1619639292   1.9938536681   1.1909024999
H    1.2103971972   2.5441680249   1.1980311031
H    2.9740341860   2.7000834695   0.9454382219
C    2.8683184886   1.7793940594   -3.3650187566
H    3.8402061134   1.6617849586   -3.8574860337
H    2.3751773219   2.6692597059   -3.7807522864
C    1.9854869753   0.5158361652   -3.5290469715
H    2.5198236779   -0.2814468263   -4.0585091101
H    1.0647655358   0.7407050059   -4.0847020232
C    2.3808540079   1.4167265347   2.5918421056
H    1.5357568281   0.7503719401   2.8170903021
H    3.2994579693   0.8036105678   2.5957292734
C    2.4837923568   2.5071867555   3.6541814795
H    2.6215545354   2.0769419894   4.6565460310
H    1.5676409116   3.1162166554   3.6747849248
H    3.3332677300   3.1788974272   3.4557508487
F    -0.8937584343   0.9077837837   1.1220152784
B    -1.0029366816   -0.5056259720   1.1237461474
F    -2.2822733093   -0.9369766335   1.3984963040
F    -0.5548681883   -0.9852378314   -0.1525662941
F    -0.0717120850   -1.0182306277   2.1053502024
C    2.2476098883   -4.4464849960   2.0637314221
H    1.5110377663   -5.0557328265   1.5266100291
H    3.0387781042   -5.0989971091   2.4610829342
N    2.9173752072   -3.5084174793   1.1018839531
C    1.8823932201   -2.7927775438   0.2894684588
H    2.4115282543   -2.1729098717   -0.4364787279
H    1.2508784463   -2.1947454668   0.9512212841
H    1.2660746780   -3.5358356875   -0.2269694483
C    3.9527901564   -4.1659704297   0.2279953386
H    4.5322063961   -3.3494404182   -0.2158886598
H    4.6035372936   -4.7291860765   0.9151087269
C    3.5917835284   -2.5245514748   2.0247040854
H    3.8883549384   -1.6539846342   1.4283121791
H    4.4996830335   -3.0296529376   2.3853891600
C    3.4055630168   -5.0676063085   -0.8629034366
H    2.7825752253   -4.4797177392   -1.5494925420
H    2.7924605936   -5.8820610836   -0.4398228076
C    2.5860440497   -2.2843101487   3.1525632662
H    1.9883013482   -1.3855449155   2.9698320121
H    3.1157788949   -2.1585094989   4.1063072925
C    4.5738702472   -5.6500379977   -1.6629499629
H    5.1943846292   -4.8141294399   -2.0201395524
H    5.2066931423   -6.2637030426   -0.9987435556
C    4.0942819324   -6.4889053954   -2.8434345186
H    4.9421784019   -6.9029567605   -3.4070761789
H    3.4974786121   -5.8761437512   -3.5352063323
H    3.4684178445   -7.3304405500   -2.5079700347
C    1.6641863403   -3.5316428906   3.1442961021
H    0.6389449543   -3.2280597531   2.8997973054
H    1.6437210967   -4.0540006293   4.1096233573
F    5.9746448421   -2.3288196683   -1.9230340132
B    4.8284654576   -1.5455077345   -1.9947919615
F    4.9509943304   -0.4492438795   -2.8570564016
F    3.7115344700   -2.3433171788   -2.3841690260
F    4.5242369947   -1.0372507359   -0.6636859549
