70

C    -1.2288822547   -0.1146191248   2.4236085717
H    -1.7933509350   -0.4771003018   3.2923903357
H    -1.8097530567   0.7031531609   1.9751355613
C    0.5725502053   -1.3271736396   1.2916246017
H    0.9497341523   -1.5718836158   0.2941345250
H    0.9780731467   -2.0241239150   2.0356065856
N    1.0651886733   0.0352338594   1.7013200976
C    0.8785318473   1.0374431608   0.6152053572
H    -0.1817908188   1.0717504619   0.3407314233
H    1.4738104788   0.7302331484   -0.2521913310
H    1.2046271425   2.0104331002   1.0053906438
C    2.4913977443   0.0628954744   2.2060784779
H    2.5156140180   -0.7101752113   2.9846781493
H    2.5803388124   1.0578322858   2.6639224319
C    0.1540950503   0.3567335349   2.8674059910
H    0.2666227613   1.4234818805   3.0924891058
H    0.5253935732   -0.2623404688   3.6959204979
C    3.6061236117   -0.1412519100   1.1907416520
H    3.6423716806   0.6965622597   0.4746502457
H    4.5267092975   -0.0588202539   1.7950456642
C    3.6679120157   -1.4852443470   0.4577987898
H    3.4141954029   -2.2996507674   1.1552592400
H    2.9248815394   -1.5141572378   -0.3570259502
C    5.0590220724   -1.7281726649   -0.1248160852
H    5.7990353344   -1.7870913628   0.6860476981
H    5.0945049540   -2.6693096512   -0.6919047124
H    5.3491274500   -0.9116800368   -0.8048206344
C    -0.9544533538   -1.2403480970   1.3936399038
H    -1.3551493192   -2.2091515169   1.7181276261
H    -1.4081743029   -1.0081820769   0.4201750915
N    1.5155608867   -2.3746165664   4.4381322068
C    2.5247028965   -2.9050600133   4.0694098665
N    3.6123493682   -3.5097945453   3.6341501820
C    4.6591135299   -2.6991708608   3.5642382168
N    5.6210170743   -1.9942796653   3.4842962895
C    6.7408347634   0.6634905640   5.8851890139
H    7.6651369027   1.2122675660   6.1101622501
H    6.9736121698   -0.4109011174   5.8784058551
N    4.3801830898   0.5398198640   6.2170849776
C    4.2238640713   -0.9328090285   6.4101232253
H    5.0819627239   -1.4420427560   5.9601359749
H    3.3068696596   -1.2661600844   5.9121725477
H    4.1638348821   -1.1303801793   7.4881288425
C    3.1888582152   1.2660950751   6.7872726543
H    3.4605493806   2.3304793995   6.7712234255
H    3.1103325828   0.9323390247   7.8343533047
C    5.6535989545   1.0053218905   6.8908201689
H    5.7273342779   0.5158290412   7.8711183712
H    5.5634175901   2.0951540236   6.9954843546
C    1.8817372338   1.0363201430   6.0415365802
H    1.9609191407   1.4355353307   5.0193148638
H    1.6307074407   -0.0336478408   5.9672899078
C    4.6006663721   0.8466253232   4.7367368116
H    3.9988714882   1.7256557509   4.4877587406
H    4.2630402539   -0.0326344493   4.1799525009
C    0.7496060068   1.7776554464   6.7599990499
H    1.0480884280   2.8278853641   6.9178462761
H    0.6011255288   1.3361957885   7.7605648111
C    -0.5573358655   1.7390690464   5.9711945794
H    -0.4443589076   2.2846699008   5.0238314921
H    -1.3755291101   2.2081411104   6.5368147452
H    -0.8519833352   0.7012419027   5.7482468567
C    6.1035143358   1.1018124362   4.5591120337
H    6.4942438568   0.5287687222   3.7090840742
H    6.2664928808   2.1771671260   4.4100422541
N    4.8275474130   3.9741344436   5.8169470805
C    3.9714495535   4.3638483647   5.0809826317
N    3.0296778902   4.8485779872   4.2902785587
C    2.3548194824   3.9435416196   3.6235353807
N    1.6961499686   3.1686787245   2.9909894915
